<?xml version="1.0" encoding="UTF-8"?>

<!-- generated on 2025-04-27 14:04:43 by Eclipse SUMO netconvert Version 1.22.0
<netconvertConfiguration xmlns:xsi="http://www.w3.org/2001/XMLSchema-instance" xsi:noNamespaceSchemaLocation="http://sumo.dlr.de/xsd/netconvertConfiguration.xsd">

    <input>
        <osm-files value="map.osm"/>
    </input>

    <output>
        <output-file value="mynetwork.net.xml"/>
        <output.street-names value="true"/>
    </output>

    <projection>
        <proj.utm value="true"/>
    </projection>

    <tls_building>
        <tls.discard-simple value="true"/>
        <tls.guess value="true"/>
        <tls.join value="true"/>
        <tls.default-type value="static"/>
    </tls_building>

    <junctions>
        <junctions.join value="true"/>
    </junctions>

</netconvertConfiguration>
-->

<net version="1.20" junctionCornerDetail="5" limitTurnSpeed="5.50" xmlns:xsi="http://www.w3.org/2001/XMLSchema-instance" xsi:noNamespaceSchemaLocation="http://sumo.dlr.de/xsd/net_file.xsd">

    <location netOffset="-632737.77,-5810119.54" convBoundary="0.00,0.00,1835.01,1516.23" origBoundary="16.938652,52.390541,17.007525,52.534185" projParameter="+proj=utm +zone=33 +ellps=WGS84 +datum=WGS84 +units=m +no_defs"/>

    <type id="highway.cycleway" priority="1" numLanes="1" speed="5.56" allow="bicycle" oneway="0" width="2.00"/>
    <type id="highway.footway" priority="1" numLanes="1" speed="2.78" allow="pedestrian" oneway="1" width="2.00"/>
    <type id="highway.path" priority="1" numLanes="1" speed="5.56" allow="pedestrian bicycle" oneway="0" width="2.00"/>
    <type id="highway.primary" priority="12" numLanes="2" speed="27.78" disallow="tram rail_urban rail rail_electric rail_fast ship container cable_car subway aircraft wheelchair scooter drone" oneway="0"/>
    <type id="highway.primary_link" priority="7" numLanes="1" speed="22.22" disallow="tram rail_urban rail rail_electric rail_fast ship container cable_car subway aircraft wheelchair scooter drone" oneway="0"/>
    <type id="highway.secondary" priority="11" numLanes="1" speed="27.78" disallow="tram rail_urban rail rail_electric rail_fast ship container cable_car subway aircraft wheelchair scooter drone" oneway="0"/>
    <type id="highway.service" priority="1" numLanes="1" speed="5.56" allow="pedestrian delivery bicycle" oneway="0"/>
    <type id="highway.steps" priority="1" numLanes="1" speed="1.39" allow="pedestrian" oneway="1" width="2.00"/>
    <type id="highway.tertiary" priority="10" numLanes="1" speed="22.22" disallow="tram rail_urban rail rail_electric rail_fast ship container cable_car subway aircraft wheelchair scooter drone" oneway="0"/>
    <type id="highway.track" priority="1" numLanes="1" speed="5.56" allow="pedestrian motorcycle moped bicycle" oneway="0"/>
    <type id="highway.unclassified" priority="4" numLanes="1" speed="13.89" disallow="tram rail_urban rail rail_electric rail_fast ship container cable_car subway aircraft wheelchair scooter drone" oneway="0"/>
    <type id="railway.rail" priority="20" numLanes="1" speed="44.44" allow="rail" oneway="1"/>

    <edge id=":10710912597_0" function="internal">
        <lane id=":10710912597_0_0" index="0" allow="pedestrian delivery bicycle" speed="5.56" length="0.10" shape="359.61,607.90 359.61,607.90"/>
    </edge>
    <edge id=":10710912597_1" function="internal">
        <lane id=":10710912597_1_0" index="0" allow="pedestrian delivery bicycle" speed="5.56" length="0.10" shape="362.67,606.94 362.67,606.94"/>
    </edge>
    <edge id=":10951883670_0" function="internal">
        <lane id=":10951883670_0_0" index="0" allow="pedestrian delivery bicycle" speed="5.56" length="7.64" shape="389.46,480.40 385.40,473.93"/>
    </edge>
    <edge id=":10951883670_1" function="internal">
        <lane id=":10951883670_1_0" index="0" allow="pedestrian delivery bicycle" speed="3.65" length="1.44" shape="389.46,480.40 389.50,478.96"/>
    </edge>
    <edge id=":10951883670_4" function="internal">
        <lane id=":10951883670_4_0" index="0" allow="pedestrian delivery bicycle" speed="3.65" length="3.23" shape="389.50,478.96 389.97,478.20 390.86,478.11 392.17,478.70"/>
    </edge>
    <edge id=":10951883670_2" function="internal">
        <lane id=":10951883670_2_0" index="0" allow="pedestrian delivery bicycle" speed="5.56" length="7.64" shape="388.11,472.23 392.17,478.70"/>
    </edge>
    <edge id=":10951883670_3" function="internal">
        <lane id=":10951883670_3_0" index="0" allow="pedestrian delivery bicycle" speed="3.65" length="1.44" shape="388.11,472.23 388.07,473.68"/>
    </edge>
    <edge id=":10951883670_5" function="internal">
        <lane id=":10951883670_5_0" index="0" allow="pedestrian delivery bicycle" speed="3.65" length="3.23" shape="388.07,473.68 387.61,474.44 386.72,474.53 385.40,473.93"/>
    </edge>
    <edge id=":10951883678_0" function="internal">
        <lane id=":10951883678_0_0" index="0" allow="pedestrian delivery bicycle" speed="5.56" length="9.16" shape="377.65,462.03 372.40,454.52"/>
    </edge>
    <edge id=":10951883678_1" function="internal">
        <lane id=":10951883678_1_0" index="0" allow="bicycle" speed="5.56" length="12.23" shape="377.65,462.03 375.56,458.18 375.16,455.44 376.45,453.82 379.42,453.32"/>
    </edge>
    <edge id=":10951883678_2" function="internal">
        <lane id=":10951883678_2_0" index="0" allow="pedestrian delivery bicycle" speed="3.65" length="4.67" shape="377.65,462.03 377.65,460.59 378.10,459.82 378.98,459.71 380.31,460.27"/>
    </edge>
    <edge id=":10951883678_3" function="internal">
        <lane id=":10951883678_3_0" index="0" allow="bicycle" speed="4.48" length="5.43" shape="381.34,456.51 379.94,456.72 379.31,457.42 379.43,458.60 380.31,460.27"/>
    </edge>
    <edge id=":10951883678_4" function="internal">
        <lane id=":10951883678_4_0" index="0" allow="bicycle" speed="5.56" length="9.35" shape="381.34,456.51 377.94,456.34 375.32,455.95 373.48,455.35 372.40,454.52"/>
    </edge>
    <edge id=":10951883678_5" function="internal">
        <lane id=":10951883678_5_0" index="0" allow="motorcycle moped bicycle" speed="3.85" length="5.44" shape="381.34,456.51 379.66,456.43 378.78,455.87 378.70,454.84 379.42,453.32"/>
    </edge>
    <edge id=":10951883678_6" function="internal">
        <lane id=":10951883678_6_0" index="0" allow="bicycle" speed="5.56" length="4.58" shape="374.98,452.62 375.78,453.07 377.04,453.27 378.39,453.32 379.42,453.32"/>
    </edge>
    <edge id=":10951883678_7" function="internal">
        <lane id=":10951883678_7_0" index="0" allow="pedestrian delivery bicycle" speed="5.56" length="9.32" shape="374.98,452.62 380.31,460.27"/>
    </edge>
    <edge id=":10951883678_8" function="internal">
        <lane id=":10951883678_8_0" index="0" allow="pedestrian delivery bicycle" speed="3.65" length="4.67" shape="374.98,452.62 375.04,454.06 374.64,454.86 373.76,455.01 372.40,454.52"/>
    </edge>
    <edge id=":10951883693_0" function="internal">
        <lane id=":10951883693_0_0" index="0" allow="motorcycle moped bicycle" speed="3.65" length="4.67" shape="578.21,478.55 578.18,480.00 577.72,480.76 576.83,480.86 575.51,480.27"/>
    </edge>
    <edge id=":11257880241_0" function="internal">
        <lane id=":11257880241_0_0" index="0" allow="pedestrian bicycle" speed="3.31" length="3.31" width="0.15" shape="791.83,243.87 791.35,242.88 790.79,242.36 790.17,242.33 789.47,242.76"/>
    </edge>
    <edge id=":11257880241_1" function="internal">
        <lane id=":11257880241_1_0" index="0" allow="pedestrian bicycle" speed="5.54" length="5.10" width="0.15" shape="791.83,243.87 791.39,242.81 790.80,241.36 790.41,239.95 790.57,239.04"/>
    </edge>
    <edge id=":11257880241_2" function="internal">
        <lane id=":11257880241_2_0" index="0" allow="pedestrian bicycle" speed="5.56" length="0.22" width="0.15" shape="791.83,243.87 791.85,243.80 791.88,243.77 791.92,243.78 791.98,243.82"/>
    </edge>
    <edge id=":11257880241_3" function="internal">
        <lane id=":11257880241_3_0" index="0" allow="pedestrian bicycle" speed="4.84" length="3.46" width="0.15" shape="791.92,240.51 791.60,241.02 791.50,241.74 791.63,242.67 791.98,243.82"/>
    </edge>
    <edge id=":11257880241_4" function="internal">
        <lane id=":11257880241_4_0" index="0" allow="pedestrian bicycle" speed="5.56" length="3.32" width="2.00" shape="791.92,240.51 789.47,242.76"/>
    </edge>
    <edge id=":11257880241_5" function="internal">
        <lane id=":11257880241_5_0" index="0" allow="pedestrian bicycle" speed="2.89" length="2.92" width="2.00" shape="791.92,240.51 791.03,240.65 790.50,240.45 790.35,239.92 790.57,239.04"/>
    </edge>
    <edge id=":11257880241_6" function="internal">
        <lane id=":11257880241_6_0" index="0" allow="pedestrian bicycle" speed="5.56" length="3.33" width="2.00" shape="788.12,241.29 790.57,239.04"/>
    </edge>
    <edge id=":11257880241_7" function="internal">
        <lane id=":11257880241_7_0" index="0" allow="pedestrian bicycle" speed="4.60" length="5.69" width="0.15" shape="788.12,241.29 789.18,240.69 790.18,240.91 791.11,241.95 791.98,243.82"/>
    </edge>
    <edge id=":11257880241_8" function="internal">
        <lane id=":11257880241_8_0" index="0" allow="pedestrian bicycle" speed="2.89" length="2.92" width="2.00" shape="788.12,241.29 789.01,241.15 789.53,241.35 789.68,241.89 789.47,242.76"/>
    </edge>
    <edge id=":12336596030_0" function="internal">
        <lane id=":12336596030_0_0" index="0" allow="pedestrian bicycle" speed="5.56" length="9.19" width="2.00" shape="710.76,965.57 708.22,966.68 706.28,967.31 704.73,968.30 703.41,970.48"/>
    </edge>
    <edge id=":12336596030_1" function="internal">
        <lane id=":12336596030_1_0" index="0" allow="pedestrian bicycle" speed="5.56" length="15.21" width="2.00" shape="710.76,965.57 706.04,967.68 703.36,967.54 702.72,965.13 704.12,960.47"/>
    </edge>
    <edge id=":12336596030_2" function="internal">
        <lane id=":12336596030_2_0" index="0" allow="pedestrian bicycle" speed="2.89" length="2.92" width="2.00" shape="710.76,965.57 709.86,965.51 709.39,965.19 709.36,964.64 709.77,963.83"/>
    </edge>
    <edge id=":12336596030_3" function="internal">
        <lane id=":12336596030_3_0" index="0" allow="pedestrian bicycle" speed="4.46" length="6.25" width="2.00" shape="707.07,961.70 706.49,963.63 706.75,964.63 707.84,964.69 709.77,963.83"/>
    </edge>
    <edge id=":12336596030_4" function="internal">
        <lane id=":12336596030_4_0" index="0" allow="pedestrian motorcycle moped bicycle" speed="5.56" length="9.52" shape="707.07,961.70 703.41,970.48"/>
    </edge>
    <edge id=":12336596030_5" function="internal">
        <lane id=":12336596030_5_0" index="0" allow="pedestrian motorcycle moped bicycle" speed="3.65" length="4.67" shape="707.07,961.70 705.87,962.50 704.98,962.56 704.40,961.88 704.12,960.47"/>
    </edge>
    <edge id=":12336596030_6" function="internal">
        <lane id=":12336596030_6_0" index="0" allow="pedestrian motorcycle moped bicycle" speed="5.56" length="9.52" shape="700.46,969.25 704.12,960.47"/>
    </edge>
    <edge id=":12336596030_7" function="internal">
        <lane id=":12336596030_7_0" index="0" allow="pedestrian bicycle" speed="5.56" length="11.20" width="2.00" shape="700.46,969.25 702.11,966.80 704.20,965.73 706.75,965.07 709.77,963.83"/>
    </edge>
    <edge id=":12336596030_8" function="internal">
        <lane id=":12336596030_8_0" index="0" allow="pedestrian motorcycle moped bicycle" speed="3.65" length="4.67" shape="700.46,969.25 701.66,968.45 702.55,968.39 703.13,969.07 703.41,970.48"/>
    </edge>
    <edge id=":12336596036_0" function="internal">
        <lane id=":12336596036_0_0" index="0" allow="pedestrian bicycle" speed="4.52" length="6.68" width="2.00" shape="829.97,805.03 829.01,803.04 828.13,802.45 827.34,803.24 826.63,805.42"/>
    </edge>
    <edge id=":12336596036_1" function="internal">
        <lane id=":12336596036_1_0" index="0" allow="pedestrian motorcycle moped bicycle" speed="5.56" length="10.23" shape="829.97,805.03 826.38,795.45"/>
    </edge>
    <edge id=":12336596036_2" function="internal">
        <lane id=":12336596036_2_0" index="0" allow="pedestrian motorcycle moped bicycle" speed="3.65" length="4.67" shape="829.97,805.03 830.30,803.62 830.91,802.97 831.79,803.06 832.96,803.90"/>
    </edge>
    <edge id=":12336596036_3" function="internal">
        <lane id=":12336596036_3_0" index="0" allow="pedestrian motorcycle moped bicycle" speed="5.56" length="10.23" shape="829.37,794.32 832.96,803.90"/>
    </edge>
    <edge id=":12336596036_4" function="internal">
        <lane id=":12336596036_4_0" index="0" allow="pedestrian bicycle" speed="5.56" length="11.77" width="2.00" shape="829.37,794.32 829.84,797.35 829.08,799.80 827.78,802.29 826.63,805.42"/>
    </edge>
    <edge id=":12336596036_5" function="internal">
        <lane id=":12336596036_5_0" index="0" allow="pedestrian motorcycle moped bicycle" speed="3.65" length="4.67" shape="829.37,794.32 829.05,795.73 828.44,796.38 827.55,796.29 826.38,795.45"/>
    </edge>
    <edge id=":12336596036_6" function="internal">
        <lane id=":12336596036_6_0" index="0" allow="pedestrian bicycle" speed="5.56" length="10.00" width="2.00" shape="824.68,804.97 825.65,802.13 826.58,800.14 826.98,798.18 826.38,795.45"/>
    </edge>
    <edge id=":12336596036_7" function="internal">
        <lane id=":12336596036_7_0" index="0" allow="pedestrian bicycle" speed="5.56" length="16.58" width="2.00" shape="824.68,804.97 826.44,799.53 828.41,797.54 830.58,799.00 832.96,803.90"/>
    </edge>
    <edge id=":12336596036_8" function="internal">
        <lane id=":12336596036_8_0" index="0" allow="pedestrian bicycle" speed="2.89" length="2.92" width="2.00" shape="824.68,804.97 825.34,804.35 825.88,804.22 826.31,804.58 826.63,805.42"/>
    </edge>
    <edge id=":12336608227_0" function="internal">
        <lane id=":12336608227_0_0" index="0" allow="pedestrian motorcycle moped bicycle" speed="5.56" length="10.46" shape="770.88,484.00 768.80,481.46 767.13,480.90 765.87,482.33 765.01,485.73"/>
    </edge>
    <edge id=":12336608227_1" function="internal">
        <lane id=":12336608227_1_0" index="0" allow="pedestrian motorcycle moped bicycle" speed="5.56" length="16.22" shape="770.88,484.00 768.52,480.87 765.73,477.78 762.80,474.79 760.06,471.95"/>
    </edge>
    <edge id=":12336608227_2" function="internal">
        <lane id=":12336608227_2_0" index="0" allow="pedestrian motorcycle moped bicycle" speed="3.67" length="4.74" shape="770.88,484.00 770.65,482.56 770.97,481.71 771.85,481.46 773.27,481.80"/>
    </edge>
    <edge id=":12336608227_3" function="internal">
        <lane id=":12336608227_3_0" index="0" allow="pedestrian motorcycle moped bicycle" speed="5.56" length="16.22" shape="762.41,469.78 765.16,472.62 768.10,475.59 770.90,478.67 773.27,481.80"/>
    </edge>
    <edge id=":12336608227_4" function="internal">
        <lane id=":12336608227_4_0" index="0" allow="pedestrian motorcycle moped bicycle" speed="5.56" length="16.64" shape="762.41,469.78 764.18,472.51 765.20,476.08 765.48,480.49 765.01,485.73"/>
    </edge>
    <edge id=":12336608227_5" function="internal">
        <lane id=":12336608227_5_0" index="0" allow="pedestrian motorcycle moped bicycle" speed="3.65" length="4.67" shape="762.41,469.78 762.64,471.20 762.32,472.04 761.47,472.29 760.06,471.95"/>
    </edge>
    <edge id=":12336608227_6" function="internal">
        <lane id=":12336608227_6_0" index="0" allow="pedestrian motorcycle moped bicycle" speed="5.56" length="13.80" shape="761.85,485.26 762.28,480.75 762.13,477.03 761.39,474.10 760.06,471.95"/>
    </edge>
    <edge id=":12336608227_7" function="internal">
        <lane id=":12336608227_7_0" index="0" allow="pedestrian motorcycle moped bicycle" speed="5.56" length="20.39" shape="761.85,485.26 763.51,478.60 765.97,475.80 769.23,476.87 773.27,481.80"/>
    </edge>
    <edge id=":12336608227_8" function="internal">
        <lane id=":12336608227_8_0" index="0" allow="pedestrian motorcycle moped bicycle" speed="3.65" length="4.67" shape="761.85,485.26 762.81,484.19 763.66,483.91 764.40,484.42 765.01,485.73"/>
    </edge>
    <edge id=":1448501022_0" function="internal">
        <lane id=":1448501022_0_0" index="0" allow="pedestrian bicycle" speed="2.89" length="2.92" width="2.00" shape="1479.10,1389.11 1479.38,1389.97 1479.27,1390.52 1478.76,1390.76 1477.86,1390.69"/>
    </edge>
    <edge id=":1462133964_0" function="internal">
        <lane id=":1462133964_0_0" index="0" allow="pedestrian delivery bicycle" speed="7.62" length="9.33" shape="954.20,310.94 952.52,309.95 950.50,309.69 948.14,310.14 945.44,311.31"/>
    </edge>
    <edge id=":1462133964_1" function="internal">
        <lane id=":1462133964_1_0" index="0" allow="pedestrian delivery bicycle" speed="9.72" length="12.46" shape="954.20,310.94 951.68,308.72 949.55,306.78 947.60,304.67 945.61,301.99"/>
    </edge>
    <edge id=":1462133964_2" function="internal">
        <lane id=":1462133964_2_0" index="0" allow="pedestrian delivery bicycle" speed="6.71" length="12.68" shape="954.20,310.94 952.29,308.46 952.24,306.08 954.05,303.81 957.72,301.64"/>
    </edge>
    <edge id=":1462133964_3" function="internal">
        <lane id=":1462133964_3_0" index="0" allow="pedestrian delivery bicycle" speed="3.72" length="4.83" shape="954.20,310.94 954.01,309.46 954.36,308.61 955.26,308.38 956.70,308.77"/>
    </edge>
    <edge id=":1462133964_4" function="internal">
        <lane id=":1462133964_4_0" index="0" allow="pedestrian delivery bicycle" speed="4.90" length="5.88" shape="959.06,304.54 957.24,305.58 956.24,306.63 956.06,307.69 956.70,308.77"/>
    </edge>
    <edge id=":1462133964_5" function="internal">
        <lane id=":1462133964_5_0" index="0" disallow="tram rail_urban rail rail_electric rail_fast ship container cable_car subway aircraft wheelchair scooter drone" speed="13.89" length="15.21" shape="959.06,304.54 945.44,311.31"/>
    </edge>
    <edge id=":1462133964_6" function="internal">
        <lane id=":1462133964_6_0" index="0" disallow="tram rail_urban rail rail_electric rail_fast ship container cable_car subway aircraft wheelchair scooter drone" speed="8.75" length="3.33" shape="959.06,304.54 955.91,305.59"/>
    </edge>
    <edge id=":1462133964_7" function="internal">
        <lane id=":1462133964_7_0" index="0" disallow="tram rail_urban rail rail_electric rail_fast ship container cable_car subway aircraft wheelchair scooter drone" speed="3.65" length="1.44" shape="959.06,304.54 957.64,304.32"/>
    </edge>
    <edge id=":1462133964_16" function="internal">
        <lane id=":1462133964_16_0" index="0" disallow="tram rail_urban rail rail_electric rail_fast ship container cable_car subway aircraft wheelchair scooter drone" speed="8.75" length="11.77" shape="955.91,305.59 954.86,305.93 951.21,305.97 948.13,304.66 945.61,301.99"/>
    </edge>
    <edge id=":1462133964_17" function="internal">
        <lane id=":1462133964_17_0" index="0" disallow="tram rail_urban rail rail_electric rail_fast ship container cable_car subway aircraft wheelchair scooter drone" speed="3.65" length="3.23" shape="957.64,304.32 956.94,303.76 956.97,302.87 957.72,301.64"/>
    </edge>
    <edge id=":1462133964_8" function="internal">
        <lane id=":1462133964_8_0" index="0" disallow="tram rail_urban rail rail_electric rail_fast ship container cable_car subway aircraft wheelchair scooter drone" speed="5.43" length="7.92" shape="951.80,299.75 952.18,301.59 953.30,302.52 955.14,302.54 957.72,301.64"/>
    </edge>
    <edge id=":1462133964_9" function="internal">
        <lane id=":1462133964_9_0" index="0" allow="pedestrian delivery bicycle" speed="9.72" length="10.69" shape="951.80,299.75 952.09,302.76 952.96,304.78 954.47,306.54 956.70,308.77"/>
    </edge>
    <edge id=":1462133964_10" function="internal">
        <lane id=":1462133964_10_0" index="0" disallow="tram rail_urban rail rail_electric rail_fast ship container cable_car subway aircraft wheelchair scooter drone" speed="9.86" length="13.91" shape="951.80,299.75 951.42,303.52 950.24,306.71 948.24,309.30 945.44,311.31"/>
    </edge>
    <edge id=":1462133964_11" function="internal">
        <lane id=":1462133964_11_0" index="0" disallow="tram rail_urban rail rail_electric rail_fast ship container cable_car subway aircraft wheelchair scooter drone" speed="5.99" length="13.13" shape="951.80,299.75 951.44,304.24 950.29,306.11 948.35,305.36 945.61,301.99"/>
    </edge>
    <edge id=":1462133964_12" function="internal">
        <lane id=":1462133964_12_0" index="0" disallow="tram rail_urban rail rail_electric rail_fast ship container cable_car subway aircraft wheelchair scooter drone" speed="5.92" length="7.84" shape="943.93,308.49 945.70,307.19 946.57,305.68 946.54,303.94 945.61,301.99"/>
    </edge>
    <edge id=":1462133964_13" function="internal">
        <lane id=":1462133964_13_0" index="0" disallow="tram rail_urban rail rail_electric rail_fast ship container cable_car subway aircraft wheelchair scooter drone" speed="13.89" length="15.40" shape="943.93,308.49 957.72,301.64"/>
    </edge>
    <edge id=":1462133964_14" function="internal">
        <lane id=":1462133964_14_0" index="0" allow="pedestrian delivery bicycle" speed="8.69" length="5.52" shape="943.93,308.49 947.19,307.36 949.25,307.16"/>
    </edge>
    <edge id=":1462133964_15" function="internal">
        <lane id=":1462133964_15_0" index="0" disallow="tram rail_urban rail rail_electric rail_fast ship container cable_car subway aircraft wheelchair scooter drone" speed="3.65" length="1.44" shape="943.93,308.49 945.37,308.63"/>
    </edge>
    <edge id=":1462133964_18" function="internal">
        <lane id=":1462133964_18_0" index="0" allow="pedestrian delivery bicycle" speed="8.69" length="7.82" shape="949.25,307.16 950.88,307.00 954.28,307.45 956.70,308.77"/>
    </edge>
    <edge id=":1462133964_19" function="internal">
        <lane id=":1462133964_19_0" index="0" disallow="tram rail_urban rail rail_electric rail_fast ship container cable_car subway aircraft wheelchair scooter drone" speed="3.65" length="3.23" shape="945.37,308.63 946.10,309.15 946.12,310.04 945.44,311.31"/>
    </edge>
    <edge id=":150654094_0" function="internal">
        <lane id=":150654094_0_0" index="0" disallow="tram rail_urban rail rail_electric rail_fast ship container cable_car subway aircraft wheelchair scooter drone" speed="13.89" length="12.86" shape="945.74,270.21 945.97,273.77 946.49,276.17 947.38,278.50 948.70,281.85"/>
        <lane id=":150654094_0_1" index="1" disallow="tram rail_urban rail rail_electric rail_fast ship container cable_car subway aircraft wheelchair scooter drone" speed="13.89" length="12.86" shape="942.55,270.61 942.79,274.38 943.35,276.93 944.30,279.40 945.70,282.96"/>
        <lane id=":150654094_0_2" index="2" disallow="tram rail_urban rail rail_electric rail_fast ship container cable_car subway aircraft wheelchair scooter drone" speed="13.89" length="12.86" shape="939.36,271.00 939.61,275.00 940.21,277.69 941.21,280.30 942.70,284.06"/>
    </edge>
    <edge id=":150654094_3" function="internal">
        <lane id=":150654094_3_0" index="0" disallow="tram rail_urban rail rail_electric rail_fast ship container cable_car subway aircraft wheelchair scooter drone" speed="13.89" length="14.12" shape="938.27,277.94 942.21,276.27 944.93,275.20 947.72,274.30 951.84,273.15"/>
        <lane id=":150654094_3_1" index="1" disallow="tram rail_urban rail rail_electric rail_fast ship container cable_car subway aircraft wheelchair scooter drone" speed="13.89" length="14.12" shape="939.80,280.77 943.57,279.17 946.19,278.15 948.87,277.30 952.82,276.20"/>
    </edge>
    <edge id=":1777031324_0" function="internal">
        <lane id=":1777031324_0_0" index="0" allow="pedestrian bicycle" speed="5.56" length="8.53" shape="818.40,539.30 817.57,538.21 816.00,537.49 813.68,537.13 810.60,537.14"/>
    </edge>
    <edge id=":1777031324_1" function="internal">
        <lane id=":1777031324_1_0" index="0" allow="pedestrian motorcycle moped bicycle" speed="5.56" length="11.32" shape="818.40,539.30 817.17,536.40 815.84,534.32 814.19,532.43 812.02,530.08"/>
    </edge>
    <edge id=":1777031324_2" function="internal">
        <lane id=":1777031324_2_0" index="0" allow="pedestrian motorcycle moped bicycle" speed="3.65" length="4.67" shape="818.40,539.30 818.76,537.91 819.38,537.26 820.27,537.38 821.42,538.24"/>
    </edge>
    <edge id=":1777031324_3" function="internal">
        <lane id=":1777031324_3_0" index="0" allow="pedestrian motorcycle moped bicycle" speed="5.56" length="12.55" shape="814.42,527.95 816.68,530.48 818.54,532.73 820.09,535.17 821.42,538.24"/>
    </edge>
    <edge id=":1777031324_4" function="internal">
        <lane id=":1777031324_4_0" index="0" allow="pedestrian bicycle" speed="5.56" length="14.78" shape="814.42,527.95 817.02,531.73 817.26,534.52 815.12,536.33 810.60,537.14"/>
    </edge>
    <edge id=":1777031324_5" function="internal">
        <lane id=":1777031324_5_0" index="0" allow="pedestrian motorcycle moped bicycle" speed="3.65" length="4.67" shape="814.42,527.95 814.61,529.38 814.28,530.21 813.42,530.45 812.02,530.08"/>
    </edge>
    <edge id=":1777031324_6" function="internal">
        <lane id=":1777031324_6_0" index="0" allow="pedestrian bicycle" speed="4.66" length="6.22" shape="810.42,533.95 812.32,533.60 813.22,532.85 813.12,531.67 812.02,530.08"/>
    </edge>
    <edge id=":1777031324_7" function="internal">
        <lane id=":1777031324_7_0" index="0" allow="pedestrian bicycle" speed="5.56" length="12.63" shape="810.42,533.95 814.60,534.02 817.82,534.76 820.10,536.17 821.42,538.24"/>
    </edge>
    <edge id=":1777031324_8" function="internal">
        <lane id=":1777031324_8_0" index="0" allow="pedestrian delivery bicycle" speed="3.65" length="4.67" shape="810.42,533.95 811.66,534.68 812.11,535.45 811.75,536.28 810.60,537.14"/>
    </edge>
    <edge id=":1777031332_0" function="internal">
        <lane id=":1777031332_0_0" index="0" allow="pedestrian bicycle" speed="5.21" length="5.12" shape="539.93,771.17 538.73,770.37 537.57,770.10 536.45,770.36 535.37,771.15"/>
    </edge>
    <edge id=":1777031332_1" function="internal">
        <lane id=":1777031332_1_0" index="0" allow="pedestrian bicycle" speed="5.56" length="10.22" shape="539.93,771.17 538.11,769.04 537.41,766.85 537.84,764.58 539.40,762.25"/>
    </edge>
    <edge id=":1777031332_2" function="internal">
        <lane id=":1777031332_2_0" index="0" allow="pedestrian motorcycle moped bicycle" speed="3.65" length="4.67" shape="539.93,771.17 539.56,769.78 539.78,768.92 540.61,768.58 542.04,768.77"/>
    </edge>
    <edge id=":1777031332_3" function="internal">
        <lane id=":1777031332_3_0" index="0" allow="pedestrian bicycle" speed="5.03" length="5.01" shape="541.78,764.39 541.02,765.54 540.81,766.65 541.15,767.72 542.04,768.77"/>
    </edge>
    <edge id=":1777031332_4" function="internal">
        <lane id=":1777031332_4_0" index="0" allow="pedestrian delivery bicycle" speed="5.56" length="9.31" shape="541.78,764.39 535.37,771.15"/>
    </edge>
    <edge id=":1777031332_5" function="internal">
        <lane id=":1777031332_5_0" index="0" allow="pedestrian delivery bicycle" speed="3.65" length="4.67" shape="541.78,764.39 540.39,764.75 539.52,764.51 539.20,763.68 539.40,762.25"/>
    </edge>
    <edge id=":1777031332_6" function="internal">
        <lane id=":1777031332_6_0" index="0" allow="pedestrian delivery bicycle" speed="5.56" length="9.13" shape="533.11,768.88 539.40,762.25"/>
    </edge>
    <edge id=":1777031332_7" function="internal">
        <lane id=":1777031332_7_0" index="0" allow="pedestrian bicycle" speed="5.56" length="10.03" shape="533.11,768.88 535.26,767.29 537.47,766.74 539.73,767.23 542.04,768.77"/>
    </edge>
    <edge id=":1777031332_8" function="internal">
        <lane id=":1777031332_8_0" index="0" allow="pedestrian delivery bicycle" speed="3.65" length="4.67" shape="533.11,768.88 534.53,768.60 535.38,768.88 535.66,769.73 535.37,771.15"/>
    </edge>
    <edge id=":1777031364_0" function="internal">
        <lane id=":1777031364_0_0" index="0" allow="pedestrian bicycle" speed="5.56" length="0.45" shape="446.74,870.89 446.67,871.00 446.61,871.07 446.56,871.14 446.47,871.24"/>
    </edge>
    <edge id=":1777031364_1" function="internal">
        <lane id=":1777031364_1_0" index="0" allow="pedestrian delivery bicycle" speed="3.65" length="2.34" shape="446.74,870.89 445.40,871.41 444.51,871.28"/>
    </edge>
    <edge id=":1777031364_4" function="internal">
        <lane id=":1777031364_4_0" index="0" allow="pedestrian delivery bicycle" speed="3.65" length="2.34" shape="444.51,871.28 444.09,870.49 444.12,869.05"/>
    </edge>
    <edge id=":1777031364_2" function="internal">
        <lane id=":1777031364_2_0" index="0" allow="pedestrian bicycle" speed="5.56" length="0.15" shape="444.03,869.17 444.06,869.13 444.08,869.11 444.10,869.09 444.12,869.05"/>
    </edge>
    <edge id=":1777031364_3" function="internal">
        <lane id=":1777031364_3_0" index="0" allow="pedestrian motorcycle moped bicycle" speed="3.65" length="2.34" shape="444.03,869.17 445.42,868.77 446.29,868.99"/>
    </edge>
    <edge id=":1777031364_5" function="internal">
        <lane id=":1777031364_5_0" index="0" allow="pedestrian motorcycle moped bicycle" speed="3.65" length="2.34" shape="446.29,868.99 446.64,869.81 446.47,871.24"/>
    </edge>
    <edge id=":1777031370_0" function="internal">
        <lane id=":1777031370_0_0" index="0" allow="pedestrian motorcycle moped bicycle" speed="5.56" length="7.62" shape="448.94,878.32 447.62,876.70 447.13,875.05 447.46,873.35 448.60,871.62"/>
    </edge>
    <edge id=":1777031370_1" function="internal">