<?xml version="1.0" encoding="UTF-8"?>

<!-- generated on 2025-04-27 14:02:31.699948 by randomTrips.py v1_22_0+0002-63e50f52594
<configuration>
    <net-file value="mynetwork.net.xml"/>
    <route-file value="routes.rou.xml"/>
    <vehicle-class value="passenger"/>
    <fringe-factor value="5"/>
    <period value="2.0"/>
</configuration>
-->

<!-- generated on 2025-04-27 14:02:31 by Eclipse SUMO duarouter Version 1.22.0
<duarouterConfiguration xmlns:xsi="http://www.w3.org/2001/XMLSchema-instance" xsi:noNamespaceSchemaLocation="http://sumo.dlr.de/xsd/duarouterConfiguration.xsd">

    <input>
        <net-file value="mynetwork.net.xml"/>
        <route-files value="trips.trips.xml"/>
    </input>

    <output>
        <output-file value="routes.rou.xml"/>
        <alternatives-output value="NUL"/>
    </output>

    <time>
        <begin value="0"/>
        <end value="3600.0"/>
    </time>

    <report>
        <no-warnings value="true"/>
        <ignore-errors value="true"/>
        <no-step-log value="true"/>
    </report>

</duarouterConfiguration>
-->

<routes xmlns:xsi="http://www.w3.org/2001/XMLSchema-instance" xsi:noNamespaceSchemaLocation="http://sumo.dlr.de/xsd/routes_file.xsd">
    <vType id="passenger" vClass="passenger"/>
    <vehicle id="0" type="passenger" depart="0.00">
        <route edges="38887451 429436158#0 429436158#1 429436158#2 431613763#0 431613763#1 431613763#2 538853231#0 538853231#1 237747074#0 237747074#1 371692003#0 371692003#1 448003004 -448003004 -371692003#1 -371692003#0"/>
    </vehicle>
    <vehicle id="5" type="passenger" depart="10.00">
        <route edges="23578081 361069769 361069771 372682064"/>
    </vehicle>
    <vehicle id="6" type="passenger" depart="12.00">
        <route edges="-371692003#0 -237747074#1 -237747074#0 -538853231#1 -538853231#0 538853231#0 538853231#1 237747074#0"/>
    </vehicle>
    <vehicle id="7" type="passenger" depart="14.00">
        <route edges="40513203#0 40513203#1 372682071#0"/>
    </vehicle>
    <vehicle id="12" type="passenger" depart="24.00">
        <route edges="948467844 614714393 155276506 614714390 158090799#0 158090799#1 372682064 372682066 292617183 292617185#0 292617185#1"/>
    </vehicle>
    <vehicle id="13" type="passenger" depart="26.00">
        <route edges="-448003004 -371692003#1 -371692003#0 -237747074#1 -237747074#0 -538853231#1 -538853231#0"/>
    </vehicle>
    <vehicle id="16" type="passenger" depart="32.00">
        <route edges="371692003#1 448003004 -448003004 -371692003#1 -371692003#0 -237747074#1 -237747074#0 -538853231#1 -538853231#0 614714391#2 23767816 23767817 260209885 614714394 608049676 967853869"/>
    </vehicle>
    <vehicle id="17" type="passenger" depart="34.00">
        <route edges="292617182 914468533 292617186#0 292617186#1 292617184 361069769 372682065 614714391#0 614714391#1 614714391#2 23767816 23767817 260209885 614714394 948467842 372682071#0"/>
    </vehicle>
    <vehicle id="18" type="passenger" depart="36.00">
        <route edges="538853231#1 237747074#0 237747074#1 371692003#0 371692003#1 448003004 -448003004 -371692003#1 -371692003#0 -237747074#1 -237747074#0 -538853231#1 -538853231#0 614714391#2 23767816 23767817 260209885 614714394 608049676 967853869 372682068 256665189 40513210"/>
    </vehicle>
    <vehicle id="20" type="passenger" depart="40.00">
        <route edges="431613763#0 431613763#1 431613763#2 538853231#0 -538853231#0 -431613763#2 -431613763#1 -431613763#0 -429436158#2 -429436158#1"/>
    </vehicle>
    <vehicle id="22" type="passenger" depart="44.00">
        <route edges="-431613763#1 -431613763#0 361069776 372682065 614714391#0 614714391#1 614714391#2 23767816 23767817 260209885 614714394 608049676 967853869 372682068 256665189 40513210 256665190"/>
    </vehicle>
    <vehicle id="24" type="passenger" depart="48.00">
        <route edges="38887451 429436158#0 429436158#1 429436158#2 361069776 361069771 372682064 372682066 292617183 292617185#0 292617185#1"/>
    </vehicle>
    <vehicle id="25" type="passenger" depart="50.00">
        <route edges="292617182 38887451 429436158#0 429436158#1 429436158#2 431613763#0 431613763#1 431613763#2 538853231#0 538853231#1 237747074#0 237747074#1"/>
    </vehicle>
    <vehicle id="27" type="passenger" depart="54.00">
        <route edges="40513203#0 40513203#1"/>
    </vehicle>
    <vehicle id="34" type="passenger" depart="68.00">
        <route edges="260209885 614714394 608049676 967853869 372682068 256665189 40513210 256665190"/>
    </vehicle>
    <vehicle id="37" type="passenger" depart="74.00">
        <route edges="40513203#1 450268295 948467844 614714393 155276506 614714390 914468532 38324187#0 38324187#1 38324187#2 15224534 292617191"/>
    </vehicle>
    <vehicle id="38" type="passenger" depart="76.00">
        <route edges="910858780 361069776 361069771"/>
    </vehicle>
    <vehicle id="39" type="passenger" depart="78.00">
        <route edges="256665189 40513210 256665190"/>
    </vehicle>
    <vehicle id="40" type="passenger" depart="80.00">
        <route edges="372682065 614714391#0 614714391#1 614714391#2 23767816 23767817 260209885 614714394 608049676 967853869 372682068 256665189 40513210 256665190"/>
    </vehicle>
    <vehicle id="44" type="passenger" depart="88.00">
        <route edges="-448003004 -371692003#1 -371692003#0 -237747074#1 -237747074#0 -538853231#1 -538853231#0 -431613763#2 -431613763#1 -431613763#0 -429436158#2 -429436158#1"/>
    </vehicle>
    <vehicle id="45" type="passenger" depart="90.00">
        <route edges="-448003004 -371692003#1 -371692003#0 -237747074#1 -237747074#0 -538853231#1 -538853231#0 -431613763#2 -431613763#1 -431613763#0 -429436158#2 -429436158#1 -429436158#0 429436158#0"/>
    </vehicle>
    <vehicle id="46" type="passenger" depart="92.00">
        <route edges="478692572#0 478692572#1 478692571#0 478692571#1 618987028 260211140 260210611#0 260210611#1 361403522 948467844 614714393 155276506 614714390 914468532 38324187#0 38324187#1 38324187#2 15224534 292617191"/>
    </vehicle>
    <vehicle id="50" type="passenger" depart="100.00">
        <route edges="-237747074#1 -237747074#0 -538853231#1 -538853231#0 538853231#0 538853231#1 237747074#0 237747074#1 371692003#0 371692003#1 448003004"/>
    </vehicle>
    <vehicle id="51" type="passenger" depart="102.00">
        <route edges="429436158#1 429436158#2 361069776 361069771 372682070#1"/>
    </vehicle>
    <vehicle id="53" type="passenger" depart="106.00">
        <route edges="-448003004 -371692003#1 -371692003#0 -237747074#1 -237747074#0 -538853231#1 -538853231#0 -431613763#2 -431613763#1 -431613763#0 361069776 361069771 372682070#1 15224534 292617191"/>
    </vehicle>
    <vehicle id="54" type="passenger" depart="108.00">
        <route edges="292617193#0 292617193#1 178632427#0 178632427#1 178632427#2 23578081 361069769 372682065 614714391#0 614714391#1 614714391#2 23767816 23767817 260209885 614714394 948467842"/>
    </vehicle>
    <vehicle id="57" type="passenger" depart="114.00">
        <route edges="910858780 361069776 372682065 614714391#0 614714391#1 614714391#2"/>
    </vehicle>
    <vehicle id="61" type="passenger" depart="122.00">
        <route edges="478692572#0 478692572#1 478692571#0 478692571#1 618987028 260211140 260210611#0 260210611#1 948467840 967853869 372682068"/>
    </vehicle>
    <vehicle id="62" type="passenger" depart="124.00">
        <route edges="-237747074#0 -538853231#1 -538853231#0 -431613763#2 -431613763#1 -431613763#0 361069776 361069771 372682064 372682066 292617183 292617185#0"/>
    </vehicle>
    <vehicle id="67" type="passenger" depart="134.00">
        <route edges="-431613763#2 -431613763#1 -431613763#0 431613763#0 431613763#1 431613763#2 538853231#0 538853231#1 237747074#0 237747074#1 371692003#0"/>
    </vehicle>
    <vehicle id="68" type="passenger" depart="136.00">
        <route edges="-431613763#0 361069776 372682065 614714391#0 614714391#1 614714391#2 23767816 23767817 260209885 614714394 948467842 372682071#0 372682071#1 471045091#0 471045091#1"/>
    </vehicle>
    <vehicle id="69" type="passenger" depart="138.00">
        <route edges="478692572#0 478692572#1 478692571#0 478692571#1 618987028 260211140 260210611#0 260210611#1 361403522 948467844 614714393 155276506 614714390 158090799#0"/>
    </vehicle>
    <vehicle id="70" type="passenger" depart="140.00">
        <route edges="292617193#0 292617193#1 178632427#0 178632427#1 178632427#2 23578081 361069769 372682065 614714391#0 614714391#1 614714391#2 23767816 23767817 260209885 614714394 948467842 372682071#0"/>
    </vehicle>
    <vehicle id="74" type="passenger" depart="148.00">
        <route edges="178632427#1 178632427#2 23578081 361069769 361069771 372682064 372682066 292617183"/>
    </vehicle>
    <vehicle id="76" type="passenger" depart="152.00">
        <route edges="292617193#0 292617193#1 178632427#0 178632427#1 178632427#2 23578081 361069769 372682065"/>
    </vehicle>
    <vehicle id="77" type="passenger" depart="154.00">
        <route edges="-448003004 -371692003#1 -371692003#0 -237747074#1 -237747074#0 -538853231#1 -538853231#0 614714391#2 23767816 23767817 260209885 614714394 608049676 967853869 372682068 256665189 40513210 256665190"/>
    </vehicle>
    <vehicle id="78" type="passenger" depart="156.00">
        <route edges="260210611#1 361403522 948467844 614714393 155276506 614714390 914468532 38324187#0 38324187#1 38324187#2"/>
    </vehicle>
    <vehicle id="79" type="passenger" depart="158.00">
        <route edges="23767816 23767817 260209885 614714394 608049676 967853869 372682068 256665189"/>
    </vehicle>
    <vehicle id="80" type="passenger" depart="160.00">
        <route edges="-431613763#0 -429436158#2 -429436158#1 -429436158#0 429436158#0"/>
    </vehicle>
    <vehicle id="86" type="passenger" depart="172.00">
        <route edges="292617193#0 292617193#1 178632427#0 178632427#1 178632427#2 23578081 361069769 372682065 614714391#0 614714391#1 614714391#2 23767816 23767817 260209885 614714394 948467842 372682071#0 372682071#1 471045091#0 471045091#1"/>
    </vehicle>
    <vehicle id="88" type="passenger" depart="176.00">
        <route edges="-448003004 -371692003#1 -371692003#0 -237747074#1 -237747074#0 -538853231#1 -538853231#0 -431613763#2 -431613763#1 -431613763#0 361069776 361069771 372682070#1 15224534 292617191"/>
    </vehicle>
    <vehicle id="92" type="passenger" depart="184.00">
        <route edges="292617184 361069769 361069771 372682064 372682066 292617183 292617185#0 292617185#1"/>
    </vehicle>
    <vehicle id="93" type="passenger" depart="186.00">
        <route edges="614714391#1 614714391#2 23767816 23767817 260209885 614714394 608049676 967853869 372682068 256665189 40513210 256665190"/>
    </vehicle>
    <vehicle id="94" type="passenger" depart="188.00">
        <route edges="178632427#0 178632427#1 178632427#2 23578081 361069769"/>
    </vehicle>
    <vehicle id="97" type="passenger" depart="194.00">
        <route edges="292617193#0 292617193#1 178632427#0 178632427#1 178632427#2 23578081 361069769 372682065 614714391#0 614714391#1"/>
    </vehicle>
    <vehicle id="102" type="passenger" depart="204.00">
        <route edges="292617193#1 178632427#0 178632427#1 178632427#2 23578081 910858780 431613763#0 431613763#1 431613763#2 538853231#0 538853231#1 237747074#0 237747074#1"/>
    </vehicle>
    <vehicle id="106" type="passenger" depart="212.00">
        <route edges="292617193#0 292617193#1 178632427#0 178632427#1 178632427#2 23578081 361069769 361069771 372682070#1 15224534 292617191"/>
    </vehicle>
    <vehicle id="111" type="passenger" depart="222.00">
        <route edges="371692003#1 448003004 -448003004 -371692003#1 -371692003#0 -237747074#1 -237747074#0 -538853231#1 -538853231#0 614714391#2 23767816 23767817 260209885 614714394 948467842 372682071#0 372682071#1 471045091#0 471045091#1"/>
    </vehicle>
    <vehicle id="115" type="passenger" depart="230.00">
        <route edges="-431613763#1 -431613763#0 361069776 372682065 614714391#0 614714391#1 614714391#2 23767816"/>
    </vehicle>
    <vehicle id="118" type="passenger" depart="236.00">
        <route edges="614714394 608049676 967853869 372682068 256665189 40513210 256665190"/>
    </vehicle>
    <vehicle id="122" type="passenger" depart="244.00">
        <route edges="178632427#1 178632427#2 23578081 910858780 431613763#0 431613763#1 431613763#2 538853231#0 538853231#1 237747074#0 237747074#1 371692003#0 371692003#1 448003004"/>
    </vehicle>
    <vehicle id="125" type="passenger" depart="250.00">
        <route edges="260209885 614714394 948467842 372682071#0 372682071#1 471045091#0 471045091#1"/>
    </vehicle>
    <vehicle id="126" type="passenger" depart="252.00">
        <route edges="-431613763#1 -431613763#0 361069776 361069771"/>
    </vehicle>
    <vehicle id="127" type="passenger" depart="254.00">
        <route edges="99631305#2"/>
    </vehicle>
    <vehicle id="128" type="passenger" depart="256.00">
        <route edges="-431613763#1 -431613763#0 431613763#0 431613763#1 431613763#2 538853231#0 538853231#1 237747074#0 237747074#1"/>
    </vehicle>
    <vehicle id="130" type="passenger" depart="260.00">
        <route edges="614714393"/>
    </vehicle>
    <vehicle id="137" type="passenger" depart="274.00">
        <route edges="-538853231#0 -431613763#2 -431613763#1 -431613763#0 361069776 361069771 372682070#1 15224534"/>
    </vehicle>
    <vehicle id="138" type="passenger" depart="276.00">
        <route edges="-448003004 -371692003#1 -371692003#0 -237747074#1 -237747074#0 -538853231#1 -538853231#0 614714391#2 23767816 23767817 260209885 614714394 948467842 372682071#0"/>
    </vehicle>
    <vehicle id="139" type="passenger" depart="278.00">
        <route edges="258791921 799390346 40513203#0"/>
    </vehicle>
    <vehicle id="140" type="passenger" depart="280.00">
        <route edges="431613763#2 538853231#0 538853231#1 237747074#0"/>
    </vehicle>
    <vehicle id="141" type="passenger" depart="282.00">
        <route edges="38887451 429436158#0 429436158#1 429436158#2 361069776 372682065 614714391#0 614714391#1 614714391#2 23767816 23767817 260209885 614714394 608049676 967853869 372682068 256665189 40513210 256665190"/>
    </vehicle>
    <vehicle id="144" type="passenger" depart="288.00">
        <route edges="292617186#0 292617186#1 292617184 361069769 372682065 614714391#0 614714391#1 614714391#2 23767816 23767817 260209885"/>
    </vehicle>
    <vehicle id="145" type="passenger" depart="290.00">
        <route edges="-237747074#0 -538853231#1 -538853231#0 614714391#2 23767816 23767817 260209885 614714394 948467842 372682071#0 372682071#1 471045091#0 471045091#1"/>
    </vehicle>
    <vehicle id="146" type="passenger" depart="292.00">
        <route edges="38887451 429436158#0 429436158#1 429436158#2 361069776 372682065 614714391#0 614714391#1 614714391#2 23767816 23767817 260209885 614714394 608049676 967853869 372682068 256665189 40513210 256665190"/>
    </vehicle>
    <vehicle id="150" type="passenger" depart="300.00">
        <route edges="799390346 40513203#0 40513203#1 372682071#0"/>
    </vehicle>
    <vehicle id="156" type="passenger" depart="312.00">
        <route edges="237747074#0 237747074#1 371692003#0 371692003#1 448003004 -448003004 -371692003#1 -371692003#0 -237747074#1 -237747074#0 -538853231#1"/>
    </vehicle>
    <vehicle id="158" type="passenger" depart="316.00">
        <route edges="292617184 361069769 372682065 614714391#0 614714391#1 614714391#2 23767816 23767817 260209885 614714394 608049676 967853869 372682068 256665189 40513210"/>
    </vehicle>
    <vehicle id="161" type="passenger" depart="322.00">
        <route edges="478692572#1 478692571#0 478692571#1 618987028 260211140 260210611#0 260210611#1 361403522 948467844 614714393"/>
    </vehicle>
    <vehicle id="162" type="passenger" depart="324.00">
        <route edges="-371692003#0 -237747074#1 -237747074#0 -538853231#1 -538853231#0 614714391#2 23767816 23767817 260209885 614714394 948467842 372682071#0 372682071#1 471045091#0"/>
    </vehicle>
    <vehicle id="165" type="passenger" depart="330.00">
        <route edges="478692572#1 478692571#0 478692571#1 618987028 260211140 260210611#0 260210611#1 948467840 967853869 372682068 256665189 40513210 256665190"/>
    </vehicle>
    <vehicle id="166" type="passenger" depart="332.00">
        <route edges="478692572#0 478692572#1 478692571#0 478692571#1 618987028 260211140 260210611#0 260210611#1 361403522 948467844 614714393 155276506 614714390 914468532 38324187#0 38324187#1 38324187#2 15224534"/>
    </vehicle>
    <vehicle id="168" type="passenger" depart="336.00">
        <route edges="23578081 910858780 431613763#0 431613763#1 431613763#2 538853231#0"/>
    </vehicle>
    <vehicle id="169" type="passenger" depart="338.00">
        <route edges="292617193#0 292617193#1 99631305#0 99631305#1 99631305#2 292617183"/>
    </vehicle>
    <vehicle id="170" type="passenger" depart="340.00">
        <route edges="478692572#0 478692572#1 478692571#0 478692571#1 618987028 260211140 260210611#0 260210611#1 948467840 967853869 372682068 256665189 40513210 256665190"/>
    </vehicle>
    <vehicle id="171" type="passenger" depart="342.00">
        <route edges="-371692003#0 -237747074#1 -237747074#0 -538853231#1 -538853231#0 614714391#2 23767816 23767817"/>
    </vehicle>
    <vehicle id="174" type="passenger" depart="348.00">
        <route edges="38887451 429436158#0 429436158#1 429436158#2 361069776 361069771 372682070#1 15224534 292617191"/>
    </vehicle>
    <vehicle id="179" type="passenger" depart="358.00">
        <route edges="-448003004 -371692003#1 -371692003#0 -237747074#1 -237747074#0 -538853231#1 -538853231#0 -431613763#2 -431613763#1 -431613763#0 361069776 361069771 372682070#1 15224534 292617191"/>
    </vehicle>
    <vehicle id="183" type="passenger" depart="366.00">
        <route edges="237747074#1 371692003#0 371692003#1 448003004"/>
    </vehicle>
    <vehicle id="185" type="passenger" depart="370.00">
        <route edges="371692003#1 448003004"/>
    </vehicle>
    <vehicle id="187" type="passenger" depart="374.00">
        <route edges="292617182 38887451 429436158#0 429436158#1 429436158#2 431613763#0 431613763#1 431613763#2 538853231#0 -538853231#0 -431613763#2 -431613763#1 -431613763#0"/>
    </vehicle>
    <vehicle id="191" type="passenger" depart="382.00">
        <route edges="258791921 799390346 40513203#0 40513203#1 450268295 948467844 614714393 155276506 614714390 914468532 38324187#0 38324187#1 38324187#2 15224534 292617191"/>
    </vehicle>
    <vehicle id="193" type="passenger" depart="386.00">
        <route edges="-448003004 -371692003#1 -371692003#0 -237747074#1 -237747074#0 -538853231#1 -538853231#0 -431613763#2 -431613763#1 -431613763#0 361069776 361069771 372682070#1 15224534 292617191"/>
    </vehicle>
    <vehicle id="195" type="passenger" depart="390.00">
        <route edges="799390346 40513203#0 40513203#1"/>
    </vehicle>
    <vehicle id="196" type="passenger" depart="392.00">
        <route edges="258791921 799390346 40513203#0 40513203#1 372682071#0"/>
    </vehicle>
    <vehicle id="200" type="passenger" depart="400.00">
        <route edges="292617193#0 292617193#1 178632427#0 178632427#1 178632427#2 23578081 910858780 431613763#0 431613763#1 431613763#2 538853231#0 538853231#1 237747074#0 237747074#1"/>
    </vehicle>
    <vehicle id="203" type="passenger" depart="406.00">
        <route edges="-431613763#2 -431613763#1 -431613763#0 361069776 372682065"/>
    </vehicle>
    <vehicle id="205" type="passenger" depart="410.00">
        <route edges="538853231#0 -538853231#0 614714391#2 23767816 23767817 260209885 614714394 948467842 372682071#0 372682071#1 471045091#0 471045091#1"/>
    </vehicle>
    <vehicle id="206" type="passenger" depart="412.00">
        <route edges="429436158#0 429436158#1 429436158#2 361069776 372682065 614714391#0 614714391#1 614714391#2 23767816 23767817 260209885 614714394 608049676 967853869 372682068 256665189 40513210 256665190"/>
    </vehicle>
    <vehicle id="207" type="passenger" depart="414.00">
        <route edges="178632427#1 178632427#2 23578081 910858780 431613763#0 431613763#1 431613763#2 538853231#0 538853231#1 237747074#0 237747074#1 371692003#0 371692003#1 448003004 -448003004 -371692003#1 -371692003#0"/>
    </vehicle>
    <vehicle id="211" type="passenger" depart="422.00">
        <route edges="178632427#0 178632427#1 178632427#2 23578081 910858780 431613763#0 431613763#1 431613763#2 538853231#0 538853231#1 237747074#0 237747074#1 371692003#0 371692003#1 448003004"/>
    </vehicle>
    <vehicle id="212" type="passenger" depart="424.00">
        <route edges="361069769 372682065 614714391#0 614714391#1 614714391#2 23767816 23767817 260209885 614714394 608049676 967853869 372682068 256665189 40513210 256665190"/>
    </vehicle>
    <vehicle id="215" type="passenger" depart="430.00">
        <route edges="-448003004 -371692003#1 -371692003#0 -237747074#1 -237747074#0 -538853231#1 -538853231#0 -431613763#2 -431613763#1 -431613763#0 361069776 361069771 372682070#1 15224534 292617191"/>
    </vehicle>
    <vehicle id="218" type="passenger" depart="436.00">
        <route edges="237747074#0 237747074#1 371692003#0 371692003#1 448003004 -448003004 -371692003#1 -371692003#0 -237747074#1 -237747074#0 -538853231#1 -538853231#0 -431613763#2 -431613763#1 -431613763#0 361069776 372682065 614714391#0"/>
    </vehicle>
    <vehicle id="223" type="passenger" depart="446.00">
        <route edges="431613763#2 538853231#0 -538853231#0 -431613763#2 -431613763#1 -431613763#0 361069776 361069771 372682064"/>
    </vehicle>
    <vehicle id="226" type="passenger" depart="452.00">
        <route edges="292617193#0 292617193#1 178632427#0 178632427#1 178632427#2 23578081 361069769 372682065 614714391#0 614714391#1 614714391#2 23767816 23767817 260209885 614714394 608049676 967853869 372682068 256665189 40513210 256665190"/>
    </vehicle>
    <vehicle id="227" type="passenger" depart="454.00">
        <route edges="237747074#0 237747074#1 371692003#0 371692003#1 448003004 -448003004 -371692003#1 -371692003#0 -237747074#1 -237747074#0 -538853231#1 -538853231#0 -431613763#2 -431613763#1 -431613763#0 -429436158#2 -429436158#1 -429436158#0 429436158#0 429436158#1"/>
    </vehicle>
    <vehicle id="228" type="passenger" depart="456.00">
        <route edges="478692572#0 478692572#1 478692571#0 478692571#1 618987028 260211140 260210611#0 260210611#1 361403522 948467844 614714393 155276506 614714390 158090799#0 158090799#1 372682064 372682066"/>
    </vehicle>
    <vehicle id="234" type="passenger" depart="468.00">
        <route edges="431613763#1 431613763#2 538853231#0 -538853231#0 -431613763#2 -431613763#1 -431613763#0"/>
    </vehicle>
    <vehicle id="235" type="passenger" depart="470.00">
        <route edges="292617184 361069769 361069771 372682070#1"/>
    </vehicle>
    <vehicle id="239" type="passenger" depart="478.00">
        <route edges="614714391#0 614714391#1 614714391#2 23767816 23767817 260209885 614714394 948467842 372682071#0 372682071#1 471045091#0 471045091#1"/>
    </vehicle>
    <vehicle id="240" type="passenger" depart="480.00">
        <route edges="292617182 38887451 429436158#0 429436158#1 429436158#2 431613763#0 431613763#1 431613763#2 538853231#0 538853231#1 237747074#0 237747074#1 371692003#0 371692003#1 448003004 -448003004 -371692003#1 -371692003#0 -237747074#1 -237747074#0"/>
    </vehicle>
    <vehicle id="241" type="passenger" depart="482.00">
        <route edges="292617182 914468533 292617186#0 292617186#1 292617184 361069769 372682065 614714391#0 614714391#1 614714391#2 23767816 23767817 260209885 614714394 948467842 372682071#0 372682071#1 471045091#0 471045091#1"/>
    </vehicle>
    <vehicle id="242" type="passenger" depart="484.00">
        <route edges="614714391#0 614714391#1 614714391#2 23767816 23767817 260209885 614714394 948467842"/>
    </vehicle>
    <vehicle id="245" type="passenger" depart="490.00">
        <route edges="23578081 361069769 372682065 614714391#0 614714391#1 614714391#2 23767816 23767817 260209885 614714394 608049676 967853869 372682068 256665189"/>
    </vehicle>
    <vehicle id="252" type="passenger" depart="504.00">
        <route edges="-371692003#1 -371692003#0 -237747074#1 -237747074#0 -538853231#1 -538853231#0 -431613763#2 -431613763#1 -431613763#0 -429436158#2 -429436158#1 -429436158#0 429436158#0 429436158#1"/>
    </vehicle>
    <vehicle id="253" type="passenger" depart="506.00">
        <route edges="-538853231#0 -431613763#2 -431613763#1 -431613763#0 361069776 361069771"/>
    </vehicle>
    <vehicle id="255" type="passenger" depart="510.00">
        <route edges="178632427#2 23578081 361069769 361069771 372682064 372682066 292617183 292617185#0"/>
    </vehicle>
    <vehicle id="258" type="passenger" depart="516.00">
        <route edges="237747074#1 371692003#0 371692003#1 448003004 -448003004 -371692003#1 -371692003#0 -237747074#1 -237747074#0 -538853231#1 -538853231#0 -431613763#2"/>
    </vehicle>
    <vehicle id="259" type="passenger" depart="518.00">
        <route edges="-371692003#0 -237747074#1 -237747074#0 -538853231#1 -538853231#0 -431613763#2 -431613763#1 -431613763#0 361069776 361069771 372682070#1"/>
    </vehicle>
    <vehicle id="260" type="passenger" depart="520.00">
        <route edges="99631305#2 292617183 292617185#0 292617185#1"/>
    </vehicle>
    <vehicle id="261" type="passenger" depart="522.00">
        <route edges="40513203#0 40513203#1 372682071#0 372682071#1 471045091#0 471045091#1"/>
    </vehicle>
    <vehicle id="262" type="passenger" depart="524.00">
        <route edges="40513203#0 40513203#1 372682071#0 372682071#1 471045091#0 471045091#1"/>
    </vehicle>
    <vehicle id="265" type="passenger" depart="530.00">
        <route edges="-448003004 -371692003#1 -371692003#0 -237747074#1 -237747074#0 -538853231#1 -538853231#0 -431613763#2 -431613763#1 -431613763#0 431613763#0 431613763#1"/>
    </vehicle>
    <vehicle id="267" type="passenger" depart="534.00">
        <route edges="431613763#0 431613763#1 431613763#2 538853231#0 -538853231#0 614714391#2 23767816 23767817 260209885 614714394 948467842 372682071#0 372682071#1 471045091#0 471045091#1"/>
    </vehicle>
    <vehicle id="269" type="passenger" depart="538.00">
        <route edges="478692571#0 478692571#1 618987028 260211140 260210611#0 260210611#1 361403522 948467844 614714393 155276506 614714390 914468532 38324187#0 38324187#1 38324187#2 15224534"/>
    </vehicle>
    <vehicle id="270" type="passenger" depart="540.00">
        <route edges="538853231#0 -538853231#0 614714391#2 23767816 23767817 260209885 614714394 608049676 967853869"/>
    </vehicle>
    <vehicle id="271" type="passenger" depart="542.00">
        <route edges="-448003004 -371692003#1 -371692003#0"/>
    </vehicle>
    <vehicle id="273" type="passenger" depart="546.00">
        <route edges="948467844 614714393 155276506 614714390 914468532 38324187#0 38324187#1 38324187#2 15224534 292617191"/>
    </vehicle>
    <vehicle id="274" type="passenger" depart="548.00">
        <route edges="431613763#2 538853231#0 -538853231#0 -431613763#2 -431613763#1"/>
    </vehicle>
    <vehicle id="275" type="passenger" depart="550.00">
        <route edges="429436158#2 -429436158#2 -429436158#1 -429436158#0 429436158#0"/>
    </vehicle>
    <vehicle id="276" type="passenger" depart="552.00">
        <route edges="-448003004 -371692003#1 -371692003#0 -237747074#1 -237747074#0 -538853231#1 -538853231#0 614714391#2 23767816 23767817 260209885 614714394 948467842 372682071#0 372682071#1 471045091#0 471045091#1"/>
    </vehicle>
    <vehicle id="279" type="passenger" depart="558.00">
        <route edges="478692572#0 478692572#1 478692571#0 478692571#1 618987028 260211140 260210611#0 260210611#1 361403522 948467844 614714393 155276506 614714390 158090799#0 158090799#1 372682064 372682066 292617183 292617185#0 292617185#1"/>
    </vehicle>
    <vehicle id="280" type="passenger" depart="560.00">
        <route edges="292617186#0 292617186#1 292617184 361069769 361069771 372682064 372682066 292617183 292617185#0 292617185#1"/>
    </vehicle>
    <vehicle id="281" type="passenger" depart="562.00">
        <route edges="361069771 372682064 372682066 292617183 292617185#0 292617185#1"/>
    </vehicle>
    <vehicle id="284" type="passenger" depart="568.00">
        <route edges="38887451 429436158#0 429436158#1 429436158#2 431613763#0 431613763#1 431613763#2 538853231#0 538853231#1"/>
    </vehicle>
    <vehicle id="285" type="passenger" depart="570.00">
        <route edges="431613763#1 431613763#2 538853231#0 -538853231#0 -431613763#2 -431613763#1 -431613763#0 361069776 361069771 372682070#1 15224534 292617191"/>
    </vehicle>
    <vehicle id="288" type="passenger" depart="576.00">
        <route edges="371692003#1 448003004 -448003004 -371692003#1 -371692003#0 -237747074#1 -237747074#0 -538853231#1 -538853231#0 538853231#0 538853231#1 237747074#0 237747074#1 371692003#0"/>
    </vehicle>
    <vehicle id="294" type="passenger" depart="588.00">
        <route edges="292617182 38887451 429436158#0 429436158#1 429436158#2 431613763#0 431613763#1 431613763#2 538853231#0 538853231#1 237747074#0 237747074#1 371692003#0 371692003#1 448003004 -448003004 -371692003#1"/>
    </vehicle>
    <vehicle id="295" type="passenger" depart="590.00">
        <route edges="614714391#0 614714391#1 614714391#2 23767816"/>
    </vehicle>
    <vehicle id="297" type="passenger" depart="594.00">
        <route edges="260211140 260210611#0 260210611#1 361403522 948467844 614714393"/>
    </vehicle>
    <vehicle id="298" type="passenger" depart="596.00">
        <route edges="431613763#0 431613763#1 431613763#2 538853231#0 -538853231#0 614714391#2 23767816 23767817 260209885"/>
    </vehicle>
    <vehicle id="299" type="passenger" depart="598.00">