<?xml version="1.0" encoding="UTF-8"?>

<!-- generated on 2025-04-25 20:04:49 by Eclipse SUMO polyconvert Version 1.22.0
<polyconvertConfiguration xmlns:xsi="http://www.w3.org/2001/XMLSchema-instance" xsi:noNamespaceSchemaLocation="http://sumo.dlr.de/xsd/polyconvertConfiguration.xsd">

    <input>
        <net-file value="osm_map\osm.net.xml"/>
        <osm-files value="map.osm"/>
    </input>

    <output>
        <output-file value="osm_map\osm.poly.xml"/>
    </output>

</polyconvertConfiguration>
-->

<additional xmlns:xsi="http://www.w3.org/2001/XMLSchema-instance" xsi:noNamespaceSchemaLocation="http://sumo.dlr.de/xsd/additional_file.xsd">
    <location netOffset="-630759.81,-5810242.92" convBoundary="-234.55,-23.71,2579.75,1803.70" origBoundary="16.920101,52.426264,16.961278,52.442828" projParameter="+proj=utm +zone=33 +ellps=WGS84 +datum=WGS84 +units=m +no_defs"/>

    <poly id="1042066894" type="landuse" color="194,194,130" fill="1" layer="-3.00" shape="969.336665,896.961351 969.225481,889.946798 971.884124,887.703166 974.088772,885.647691 975.810210,883.601516 977.296425,881.448868 978.847626,889.047387 978.344367,890.057802 975.547623,892.631611 972.458359,894.952728 969.336665,896.961351"/>
    <poly id="1149258335" type="amenity" color="237,199,199" fill="1" layer="-1.00" shape="933.659309,872.076313 932.039465,863.229470 954.166868,858.936919 955.799673,867.806377 933.659309,872.076313"/>
    <poly id="1149258336" type="amenity" color="237,199,199" fill="1" layer="-1.00" shape="950.474248,892.638124 949.543752,888.272678 956.974870,886.891555 957.804592,891.209783 950.474248,892.638124"/>
    <poly id="1149258338" type="amenity" color="237,199,199" fill="1" layer="-1.00" shape="936.360866,885.737833 934.781818,876.892083 951.878232,873.510812 952.654117,878.061314 955.205655,877.528741 954.405503,873.122271 956.860985,872.620511 958.447987,881.421966 936.360866,885.737833"/>
    <poly id="117943570" type="tourism" color="207,245,201" fill="1" layer="-2.00" shape="1339.900624,722.341292 1355.564410,724.710211 1338.480567,735.179948 1325.179300,743.614585 1316.833370,748.899284 1304.694804,756.597300 1303.684416,757.237906 1297.615299,761.081365 1296.321428,761.892424 1291.532297,764.935588 1290.688044,765.469368 1290.106584,765.843269 1199.304655,823.413415 1188.405165,829.820579 1177.151340,836.251638 1156.090648,847.416486 1137.970318,855.733316 1128.792337,859.593661 1125.444658,860.894963 1108.941284,867.263133 1087.481994,874.789348 1074.588226,878.716996 1060.752924,882.496985 1057.217773,883.181179 1051.404396,884.605563 1046.899841,883.138019 1035.011130,874.961599 1039.023891,871.941883 1035.435739,867.249130 1034.816212,867.521874 1031.507578,863.059213 1028.814674,865.057047 1024.172531,858.321588 1018.263520,849.871595 1012.651852,841.240385 1012.998288,841.004830 1013.358619,840.758519 1012.546761,839.579273 1015.577536,839.693967 1018.654089,837.595124 1021.446578,835.688993 1023.068369,838.626168 1024.080736,840.445175 1024.800643,841.755509 1026.474721,844.771995 1027.778648,847.133041 1029.939052,849.517066 1032.589432,850.879196 1035.737779,851.175129 1038.784196,850.199568 1114.473518,798.019276 1123.053134,795.166749 1125.552658,793.787024 1132.852317,789.709292 1128.742242,761.385675 1129.704585,752.652604 1130.661921,752.466848 1136.713322,751.304919 1165.989641,736.420771 1166.611880,736.047950 1167.247715,735.675495 1169.013365,734.520929 1230.327958,694.643888 1252.192496,647.775228 1257.480811,641.094962 1275.739923,600.317503 1283.792321,607.478750 1284.714585,607.080619 1287.130505,606.032608 1287.901723,605.686065 1288.920391,608.028384 1290.439491,615.036288 1295.904624,614.181544 1295.726200,616.769922 1295.321734,619.163022 1294.444037,621.699214 1292.313365,625.548394 1290.870481,628.358761 1289.915983,631.727602 1288.703733,632.284879 1288.250050,634.231477 1288.437448,636.117400 1288.567332,637.612245 1287.766380,638.558982 1286.538664,639.438600 1285.775744,639.729718 1285.084388,639.889207 1286.529109,644.602433 1288.127176,644.623131 1289.312895,644.799687 1290.061166,645.053521 1291.110174,645.760620 1292.005746,646.608277 1292.628810,647.470869 1293.621108,649.022286 1293.759424,650.962538 1293.197354,652.639113 1296.009255,655.586115 1291.513130,659.872535 1273.207944,677.310128 1272.380706,678.222771 1272.067625,679.494249 1272.060064,681.041047 1272.491440,682.454959 1288.256578,701.810006 1294.333829,707.282148 1300.575502,711.445437 1307.329837,715.010395 1311.652960,716.651367 1312.507290,717.008222 1313.280647,717.340641 1339.900624,722.341292"/>
    <poly id="1306001712" type="landuse" color="194,194,130" fill="1" layer="-3.00" shape="1059.076336,876.787082 1057.817279,880.359248 1057.217773,883.181179 1060.752924,882.496985 1074.588226,878.716996 1087.481994,874.789348 1108.941284,867.263133 1125.444658,860.894963 1125.490626,858.169472 1125.787953,842.028561 1126.140078,828.660365 1125.978626,826.819664 1125.409623,824.956891 1124.534065,823.364124 1123.270680,822.028053 1121.841625,821.288527 1119.949007,821.093030 1118.095470,821.722166 1059.076336,876.787082"/>
    <poly id="1306001713" type="landuse" color="194,194,130" fill="1" layer="-3.00" shape="1124.178506,810.511144 1123.053134,795.166749 1114.473518,798.019276 1038.784196,850.199568 1035.737779,851.175129 1032.589432,850.879196 1029.939052,849.517066 1027.778648,847.133041 1026.474721,844.771995 1024.800643,841.755509 1024.080736,840.445175 1023.068369,838.626168 1021.446578,835.688993 1018.654089,837.595124 1015.577536,839.693967 1013.358619,840.758519 1012.998288,841.004830 1024.172531,858.321588 1028.814674,865.057047 1031.507578,863.059213 1034.816212,867.521874 1035.435739,867.249130 1039.023891,871.941883 1040.569227,872.150290 1071.439493,855.371857 1084.603392,847.211114 1087.183757,845.098995 1124.178506,810.511144"/>
    <poly id="1306001714" type="natural" color="140,196,107" fill="1" layer="-4.00" shape="1048.464972,878.806130 1050.393647,878.924661 1052.736402,877.807802 1054.507413,876.197034 1055.515458,874.120612 1055.490826,872.250197 1054.767186,870.572485 1053.292345,869.764973 1051.514039,869.873065 1049.295724,870.915357 1047.445531,872.434967 1046.392228,874.677118 1046.359268,876.412434 1046.976539,877.998255 1048.464972,878.806130"/>
    <poly id="131624147" type="residential" color="235,235,227" fill="1" layer="-3.00" shape="1341.451867,775.704499 1339.742880,777.027470 1337.992946,778.861297 1337.095263,780.117051 1336.335325,781.309732 1322.354266,790.238048 1320.530214,790.022059 1318.340049,790.519644 1311.570951,794.845092 1275.033963,817.913729 1259.824901,823.692945 1142.352142,897.742398 1124.290624,908.943390 1076.564284,943.977710 1075.847146,944.592843 1075.185580,945.164950 1072.796353,947.760771 1070.592379,950.550768 1068.528397,953.700666 1066.671254,957.000799 1065.095488,960.208319 1063.801630,963.556959 1062.775187,967.079719 1061.841520,970.694004 1061.158542,977.386757 1063.673570,1006.346410 1066.992318,1025.633851 1070.098761,1036.357019 1073.613021,1047.091136 1077.562076,1058.604862 1083.151686,1059.934625 1100.091944,1101.624153 1119.034106,1148.542724 1140.424697,1200.268307 1149.765421,1230.847060 1155.779128,1261.202921 1152.644197,1261.430346 1150.498467,1260.282024 1151.808878,1266.193597 1154.078123,1278.697331 1154.867625,1283.237115 1158.017995,1301.173458 1159.904853,1310.439369 1161.410395,1344.536096 1158.748764,1349.428363 1159.050748,1354.645083 1159.262062,1361.717995 1159.844906,1380.787366 1160.539618,1396.198134 1160.750028,1403.304412 1161.347860,1420.548948 1166.930753,1571.492641 1167.472425,1583.482546 1168.852168,1635.416527 1169.621070,1651.352386 1170.028146,1659.743846 1170.836988,1676.470975 1171.042268,1682.753536 1172.688459,1727.549539 1203.218336,1779.955185 1262.002098,1754.835524 1325.593268,1746.718214 1361.474958,1737.911758 1298.527299,1687.949789 1330.632279,1680.243521 1403.696795,1644.146370 1410.721174,1582.789092 1456.955526,1587.639624 1481.455478,1560.308508 1514.496415,1525.472511 1528.604222,1509.759196 1535.224840,1504.606489 1539.534491,1492.580252 1547.328574,1469.117681 1570.643312,1413.619543 1586.915134,1093.972290 1640.021151,1065.120044 1646.566902,1062.013280 1654.421814,1058.285173 1677.442750,1047.342243 1663.575091,1020.780515 1656.243739,1012.402647 1645.115581,988.674963 1631.865901,960.371532 1629.760579,955.451177 1612.285898,963.516572 1611.849016,959.787532 1610.676828,949.772743 1607.096307,923.110039 1622.606407,917.273227 1625.847032,915.657747 1629.018381,913.584090 1632.139153,911.620368 1638.709685,908.358439 1650.439224,902.720309 1650.893848,902.509973 1642.175818,884.245110 1758.051333,831.143378 1758.099058,827.861447 1720.920836,827.715571 1704.901534,827.194514 1683.355763,826.023668 1674.525713,826.041573 1661.089167,827.115041 1654.438308,813.669335 1644.637489,813.360629 1644.492733,812.421845 1633.089370,817.812809 1632.172895,809.162714 1620.249959,809.854168 1614.038583,754.094731 1613.399608,754.077512 1611.030692,734.447948 1637.443577,721.125423 1637.675897,698.371776 1623.983486,698.325510 1605.882562,707.130895 1612.646094,672.733678 1606.419153,675.604248 1585.753167,684.930457 1580.391943,686.978538 1541.086962,660.689155 1404.752443,733.857426 1396.910420,740.635778 1343.216052,774.605603 1341.451867,775.704499"/>
    <poly id="142810452" type="leisure" color="207,245,201" fill="1" layer="-2.00" shape="1002.996460,960.022316 1000.880289,957.005107 996.704510,955.201412 992.815066,948.808925 992.233501,947.413270 991.925747,945.446226 991.050724,942.818457 990.988567,940.824612 991.119419,938.735780 991.210745,936.345391 990.923679,934.367773 990.701007,932.525435 990.445966,930.114627 990.912808,928.179489 992.085934,925.272773 993.437582,922.304068 995.716059,919.271189 998.471248,916.217709 1001.216468,914.043192 1003.430109,912.666870 1004.292438,911.710608 1005.853276,911.340687 1007.878786,910.638218 1008.666620,910.937589 1009.100353,910.236938 1011.088298,909.667016 1011.732556,909.739947 1014.441618,909.167113 1017.114243,908.938317 1019.234724,909.006335 1020.141926,909.420206 1023.291494,909.415669 1023.964536,910.190531 1026.306841,909.596734 1028.161627,909.679887 1030.512187,908.017883 1031.303003,908.206043 1032.390982,908.980910 1032.749553,909.814113 1033.781858,909.875199 1034.574894,909.473557 1036.716232,910.031839 1037.406447,910.673610 1039.171774,911.555689 1039.957848,912.934579 1041.097750,914.055855 1042.541874,914.740115 1043.532432,915.089450 1044.768390,916.179916 1045.443517,916.876931 1046.132337,918.331118 1046.893971,919.353210 1047.730144,920.132453 1048.298699,921.505507 1048.822425,922.521215 1049.686946,924.525462 1050.014443,925.502516 1050.187624,926.653500 1050.372676,927.615602 1050.159334,929.735609 1049.822581,931.384866 1049.896385,933.957758 1049.643423,935.019401 1050.006398,935.941759 1050.063360,937.367862 1050.881392,938.569539 1050.748028,939.990535 1050.591221,941.778175 1050.370455,942.907458 1050.726200,944.352708 1049.948383,946.468697 1049.306647,948.076382 1048.290626,950.197108 1047.278023,951.683546 1046.471098,952.095942 1044.363698,954.076089 1043.394699,954.951575 1042.309119,956.369279 1041.344398,957.845873 1040.432332,959.134679 1039.002478,960.454109 1038.461015,960.606522 1037.863185,961.592135 1036.539005,962.268891 1035.328059,962.781744 1033.494447,963.177724 1031.576351,963.426755 1029.548436,963.205401 1028.214340,962.223600 1026.399826,961.907808 1024.482326,962.134599 1022.230798,962.641795 1020.003477,963.260937 1016.841681,964.990216 1013.101977,964.934406 1012.049124,964.371945 1011.170781,964.404029 1009.442777,964.413319 1007.284416,963.476189 1004.862580,961.964388 1002.996460,960.022316"/>
    <poly id="142810714" type="building" color="255,230,230" fill="1" layer="-1.00" shape="1105.732749,1047.586079 1093.780669,1046.096618 1107.355561,937.225068 1119.320973,938.481189 1118.506606,945.504294 1117.291461,954.787055 1115.895514,965.990365 1114.568880,976.639062 1113.285194,986.955027 1111.845719,998.513313 1110.224691,1011.513559 1109.201666,1019.721920 1107.761011,1031.324693 1106.599079,1040.653403 1105.732749,1047.586079"/>
    <poly id="275553889" type="landuse" color="194,194,130" fill="1" layer="-3.00" shape="1064.466229,1006.211870 1061.533913,978.353967 1062.628274,978.383337 1064.665354,980.797460 1067.063207,1005.758483 1064.466229,1006.211870"/>
    <poly id="275553893" type="landuse" color="194,194,130" fill="1" layer="-3.00" shape="980.510363,961.978949 977.096452,939.884403 976.846918,935.492695 977.027720,929.765862 973.004856,932.150975 978.254321,961.640203 980.510363,961.978949"/>
    <poly id="275553895" type="landuse" color="194,194,130" fill="1" layer="-3.00" shape="1061.841520,970.694004 1062.775187,967.079719 1063.801630,963.556959 1065.095488,960.208319 1066.671254,957.000799 1068.528397,953.700666 1070.592379,950.550768 1072.796353,947.760771 1075.185580,945.164950 1075.775778,946.238092 1075.904518,947.777417 1075.721408,949.530962 1075.130460,951.273560 1066.206882,968.473969 1063.073551,970.916270 1061.841520,970.694004"/>
    <poly id="275553897" type="landuse" color="194,194,130" fill="1" layer="-3.00" shape="1079.659174,941.701327 1082.194826,939.732690 1092.456891,931.716677 1102.945919,923.862591 1124.290624,908.943390 1125.637172,908.701307 1126.928004,909.014203 1128.129803,909.602947 1129.087949,910.652587 1084.272424,943.171821 1082.918792,943.424854 1081.630286,943.278974 1080.435885,942.668181 1079.659174,941.701327"/>
    <poly id="275553900" type="landuse" color="194,194,130" fill="1" layer="-3.00" shape="1050.031146,890.912520 1049.671681,890.112680 1025.013929,876.908140 1026.364432,878.547019 1030.646049,882.746415 1035.456861,886.236597 1038.923073,888.121449 1042.610446,889.622706 1046.276365,890.655951 1050.031146,890.912520"/>
    <poly id="275553902" type="landuse" color="194,194,130" fill="1" layer="-3.00" shape="1026.792657,983.520680 1053.262809,972.511607 1053.190538,968.614346 1035.116354,975.741915 1030.992697,977.066974 1026.486138,977.958843 1021.361990,978.544779 1026.792657,983.520680"/>
    <poly id="275553903" type="landuse" color="194,194,130" fill="1" layer="-3.00" shape="1017.241433,990.910382 1010.535891,984.520234 1007.889588,982.501582 1004.990526,980.776647 1001.886351,979.090730 998.707339,977.658785 995.274078,976.576166 991.859651,975.805681 984.990543,974.497356 980.265369,973.903182 980.608495,975.058721 981.635823,976.065670 1009.307050,991.532231 1011.844851,992.524061 1013.167332,992.670835 1014.415108,992.559626 1015.714409,992.049140 1017.241433,990.910382"/>
    <poly id="275553905" type="landuse" color="194,194,130" fill="1" layer="-3.00" shape="969.225481,889.946798 971.884124,887.703166 974.088772,885.647691 975.810210,883.601516 977.296425,881.448868 974.598367,868.421795 970.710755,854.094062 969.261755,855.112504 968.777036,856.446171 968.669928,858.157239 969.058071,888.072556 969.225481,889.946798"/>
    <poly id="275553907" type="landuse" color="194,194,130" fill="1" layer="-3.00" shape="969.713897,914.600562 969.492423,911.444980 969.360724,904.941832 969.336665,896.961351 972.458359,894.952728 975.547623,892.631611 978.344367,890.057802 978.469497,891.986558 978.439418,894.122611 978.147882,895.862121 977.640495,898.041020 977.040267,900.384372 976.249651,902.978596 975.123515,905.908835 973.726082,908.809540 971.897733,911.798853 969.713897,914.600562"/>
    <poly id="275553909" type="landuse" color="194,194,130" fill="1" layer="-3.00" shape="1031.139994,988.055729 1053.187255,978.875646 1053.822257,987.150768 1054.783709,999.229806 1056.304288,1010.244289 1058.925726,1024.593776 1051.217199,1012.745460 1045.059327,1004.199708 1037.230404,994.807803 1031.139994,988.055729"/>
    <poly id="275553910" type="landuse" color="194,194,130" fill="1" layer="-3.00" shape="942.340671,815.693433 944.200062,820.172818 948.953526,831.641207 960.294282,878.778143 960.587144,881.301258 960.541030,883.781895 960.320209,886.435918 959.504200,888.962687 958.201463,891.376238 956.548904,893.390877 954.602331,895.208431 952.430612,896.797360 925.165618,907.763414 920.110042,909.341820 913.164803,910.869575 843.123331,922.247689 827.801128,923.651295 820.028376,924.077453 812.283167,924.237253 801.547991,868.157714 794.188250,830.554480 802.173122,822.721736 798.514440,819.129095 795.969679,816.868436 792.836810,814.469605 790.211507,812.930208 788.127514,812.006299 785.527209,811.057435 783.352709,810.464989 781.476897,810.403627 774.456762,810.660818 752.274128,811.680641 745.277666,811.816083 727.944691,812.598580 705.530375,813.634671 694.579467,814.109529 690.121454,814.201688 686.939442,815.162705 684.867755,816.320378 683.681529,817.434969 684.250859,826.409410 684.371954,830.018593 684.596202,833.586017 685.283524,843.743339 685.277263,848.807072 685.163434,853.823408 684.798742,858.554795 684.167952,862.299669 683.554720,865.388376 682.676200,869.493893 681.630722,873.483649 680.775120,876.732812 680.035562,878.950042 680.017408,879.628452 680.337934,880.360444 680.849978,881.053042 681.622406,881.674702 682.292622,882.048779 683.420348,882.357193 684.845421,882.484363 685.826032,882.443827 687.003815,882.152591 687.867776,881.641498 688.651656,881.072614 689.266791,880.454697 689.754562,879.766594 690.289070,878.857154 690.571777,877.952104 690.712678,876.753894 688.681396,876.910995 684.669624,826.520781 689.782017,826.123375 689.410299,820.949363 695.646367,820.504127 696.023137,825.489074 703.551067,824.811314 703.200352,819.615604 707.707182,819.224268 708.077690,824.442768 748.882630,821.227950 775.528749,819.147912 776.486003,819.218063 778.029524,819.749092 779.812639,820.731716 781.284856,821.639238 782.949977,822.963716 783.718530,823.729972 784.380654,824.660319 784.883457,825.697694 785.469406,827.694429 786.058332,829.579950 786.804528,832.705053 788.050770,838.748336 788.669300,841.814373 788.983717,842.011994 789.069000,842.637528 788.878321,842.899528 802.049219,907.602824 803.137791,928.165840 803.556656,933.352259 706.988826,941.117072 703.061367,941.468262 667.914707,944.256082 667.516641,939.303955 666.181986,939.357279 666.041513,938.251705 665.680706,938.008332 663.943223,938.117656 664.474986,945.699910 684.695237,944.527037 706.476849,943.217965 719.164112,942.411221 741.271476,940.877303 762.950030,939.354261 778.735217,938.185444 790.226482,937.335725 802.750105,936.291094 814.483458,935.292102 827.446239,934.359463 847.282080,933.321640 858.965786,932.399330 867.816143,931.612579 874.593317,930.770285 881.100686,929.842863 886.202201,928.833253 892.728653,927.194071 900.377684,925.039643 906.269966,923.205409 912.231180,921.083663 914.453556,920.141586 918.716213,918.452882 925.188912,915.521282 930.222782,913.230013 937.531815,909.296940 942.560574,906.181965 951.852332,900.098437 960.582254,894.166803 965.106470,892.618706 964.626968,855.455650 964.126728,852.548571 963.123413,849.883979 951.007642,827.589508 949.136661,828.362922 946.892091,823.027367 944.078621,816.329893 933.882144,791.961204 933.338285,790.933841 932.553171,790.278413 930.925993,792.360518 931.784979,795.588835 932.986948,795.665578 934.054933,796.172777 934.806892,797.049907 942.340671,815.693433"/>
    <poly id="275553911" type="landuse" color="194,194,130" fill="1" layer="-3.00" shape="1070.556106,934.668013 1063.582345,940.045594 1063.737416,934.774378 1063.312662,928.296746 1062.370837,923.597084 1052.744816,898.787110 1053.991491,898.464421 1054.906281,900.369853 1056.674124,902.932559 1068.960780,930.240177 1069.405945,932.155268 1070.556106,934.668013"/>
    <poly id="275553912" type="landuse" color="194,194,130" fill="1" layer="-3.00" shape="985.204195,881.571921 986.112804,888.273979 988.055158,902.338092 999.127941,897.315205 1003.829625,895.237688 1007.489627,893.955814 1011.239658,893.121536 1014.946753,892.619994 1018.570957,892.672704 1022.670614,893.005281 1022.833882,892.497706 1017.702879,885.982855 1007.718694,872.738036 997.123280,855.904281 991.336251,845.187181 987.368181,846.794690 988.939595,850.342624 989.630041,852.498003 990.226154,854.873442 990.670634,857.322720 990.820800,859.586032 990.800071,862.134127 990.623299,864.666907 990.183796,868.372365 989.363700,871.811636 988.593764,874.395284 987.563738,877.038732 986.511892,879.481264 985.204195,881.571921"/>
    <poly id="275566715" type="landuse" color="194,194,130" fill="1" layer="-3.00" shape="643.940052,981.265573 639.161914,970.954303 896.234373,953.998769 914.580537,952.197875 923.627878,950.659703 932.433624,948.491819 941.486590,945.729587 950.362899,942.706657 959.025109,939.043620 967.660504,935.112772 972.109330,961.230548 965.916161,960.841866 959.665270,960.830047 952.598046,961.074583 643.940052,981.265573"/>
    <poly id="328400868" type="landuse" color="194,194,130" fill="1" layer="-3.00" shape="977.727790,850.654039 980.466387,859.887049 982.964081,869.224894 983.244474,867.140072 983.467802,865.153885 983.635920,862.943628 983.573883,860.437831 983.121300,857.276050 982.549941,853.977529 981.932239,851.646031 981.158791,849.288096 977.727790,850.654039"/>
    <poly id="34158292" type="building" color="255,230,230" fill="1" layer="-1.00" shape="964.696744,993.630000 971.217867,994.216678 977.650623,994.800995 973.637843,1039.166780 973.559006,1040.077283 966.115019,1039.410202 960.604948,1038.917418 961.233172,1031.978341 961.698721,1026.793358 954.695637,1026.171507 955.551691,1018.092202 956.447432,1018.171870 962.424745,1018.743955 963.892180,1002.578785 963.978707,1001.635099 964.067918,1000.591321 964.696744,993.630000"/>
    <poly id="34625168" type="parking" color="184,184,179" fill="1" layer="-1.00" shape="930.925993,792.360518 931.784979,795.588835 932.986948,795.665578 934.054933,796.172777 934.806892,797.049907 942.340671,815.693433 940.724534,816.095281 941.544209,820.535659 944.200062,820.172818 948.953526,831.641207 960.294282,878.778143 960.587144,881.301258 960.541030,883.781895 960.320209,886.435918 959.504200,888.962687 957.804592,891.209783 950.474248,892.638124 949.543752,888.272678 939.848387,890.127317 940.748124,894.625490 938.325150,895.183776 937.321126,890.515865 932.471599,891.765900 930.097101,892.292101 930.991837,896.723361 911.200956,900.644593 886.698287,906.008874 884.917912,895.788821 881.950824,882.131348 909.384481,876.801087 906.841092,863.833852 902.443689,862.680941 896.203142,828.524269 901.089639,829.957390 897.126975,809.283918 897.296812,800.663130 893.831942,781.972921 891.463641,779.728071 886.157711,752.062694 881.190890,752.608484 879.240246,742.139029 879.103571,741.400821 874.637908,718.421227 872.246378,706.125859 868.308163,696.716097 866.381261,686.881665 863.810487,677.720008 876.966708,673.910122 881.688935,671.833033 914.824010,750.260122 910.182576,752.116754 910.225986,752.273730 915.194064,751.427507 919.875112,776.260414 916.835535,776.980256 918.533790,778.083080 921.491678,779.141765 924.550514,779.479743 927.466185,779.068210 927.867002,778.834107 929.367228,782.502534 931.091053,786.711171 924.056198,787.769078 923.371674,787.928799 922.711061,788.211585 922.069350,788.550525 921.314704,789.042251 920.689212,789.537439 920.235745,789.959332 919.780191,790.459076 919.447590,790.939857 919.149572,791.399305 918.870754,791.903787 918.625924,792.409180 918.350625,793.036180 918.196249,793.466091 918.060776,793.952156 917.951599,794.472314 917.905388,794.927384 918.582218,794.800844 930.925993,792.360518"/>
    <poly id="539489125" type="building" color="255,230,230" fill="1" layer="-1.00" shape="1034.816212,867.521874 1035.435739,867.249130 1039.023891,871.941883 1035.011130,874.961599 1031.332289,870.099474 1034.816212,867.521874"/>
    <poly id="539489125#1" type="shop" color="237,199,255" fill="1" layer="-1.00" shape="1034.816212,867.521874 1035.435739,867.249130 1039.023891,871.941883 1035.011130,874.961599 1031.332289,870.099474 1034.816212,867.521874"/>
    <poly id="539489126" type="building" color="255,230,230" fill="1" layer="-1.00" shape="1031.507578,863.059213 1028.814674,865.057047 1028.023654,865.636816 1031.332289,870.099474 1034.816212,867.521874 1031.507578,863.059213"/>
    <poly id="539489126#1" type="shop" color="237,199,255" fill="1" layer="-1.00" shape="1031.507578,863.059213 1028.814674,865.057047 1028.023654,865.636816 1031.332289,870.099474 1034.816212,867.521874 1031.507578,863.059213"/>
    <poly id="543411906" type="parking" color="184,184,179" fill="1" layer="-1.00" shape="941.212692,1021.903518 943.298118,999.177394 947.992256,1000.928166 945.755481,1023.717009 941.212692,1021.903518"/>
    <poly id="548769449" type="landuse" color="194,194,130" fill="1" layer="-3.00" shape="965.106470,892.618706 960.582254,894.166803 951.852332,900.098437 942.560574,906.181965 937.531815,909.296940 930.222782,913.230013 925.188912,915.521282 918.716213,918.452882 914.453556,920.141586 912.231180,921.083663 906.269966,923.205409 900.377684,925.039643 892.728653,927.194071 886.202201,928.833253 881.100686,929.842863 874.593317,930.770285 867.816143,931.612579 858.965786,932.399330 847.282080,933.321640 827.446239,934.359463 814.483458,935.292102 802.750105,936.291094 790.226482,937.335725 778.735217,938.185444 762.950030,939.354261 741.271476,940.877303 719.164112,942.411221 706.476849,943.217965 684.695237,944.527037 664.474986,945.699910 664.917973,952.278139 688.776935,950.612783 709.638504,949.368140 727.577790,948.279076 752.668905,946.580236 776.894103,944.958500 795.236855,943.791449 819.151742,942.328551 835.619596,941.322886 852.170815,940.252733 860.607059,939.688594 866.695248,939.172840 874.074450,938.201996 880.653956,937.120694 885.086345,936.204445 890.257616,935.129931 893.879635,934.247617 898.607355,932.972023 903.507991,931.589774 907.954104,930.161956 910.818406,929.125790 918.902117,925.981390 925.044299,923.452721 930.374323,921.024709 935.518201,918.435899 939.868820,916.003897 944.680892,913.105703 947.951213,911.134439 952.219146,908.488770 957.452793,905.089937 965.303938,899.713479 965.106470,892.618706"/>
    <poly id="548769450" type="landuse" color="194,194,130" fill="1" layer="-3.00" shape="987.368181,846.794690 981.158791,849.288096 981.932239,851.646031 982.549941,853.977529 983.121300,857.276050 983.573883,860.437831 983.635920,862.943628 983.467802,865.153885 983.244474,867.140072 982.964081,869.224894 982.429706,869.366374 985.204195,881.571921 986.511892,879.481264 987.563738,877.038732 988.593764,874.395284 989.363700,871.811636 990.183796,868.372365 990.623299,864.666907 990.800071,862.134127 990.820800,859.586032 990.670634,857.322720 990.226154,854.873442 989.630041,852.498003 988.939595,850.342624 987.368181,846.794690"/>
    <poly id="548774273" type="landuse" color="194,194,130" fill="1" layer="-3.00" shape="665.814263,955.896933 872.683297,942.393913 881.151740,941.897448 888.062464,941.147788 894.676494,940.301150 900.947440,939.311770 906.882994,938.146465 912.403914,936.970053 919.601274,935.170820 927.630719,932.781785 933.897277,930.434533 940.008756,927.782635 949.342675,923.169326 959.787813,917.450626 962.477553,916.075923 963.866899,916.013016 964.794433,916.683400 965.857665,918.381334 963.079136,920.276740 960.228585,921.814072 950.630810,926.119789 940.982014,930.045755 930.121581,933.750053 926.354960,934.951218 919.977748,936.605486 912.787485,938.393779 907.260067,939.558887 901.202163,940.720911 894.835162,941.741104 888.091688,942.595403 881.251025,943.269034 872.920262,943.958389 670.936009,956.924333 668.877917,956.813616 667.383452,956.484263 665.814263,955.896933"/>
    <poly id="548774274" type="landuse" color="194,194,130" fill="1" layer="-3.00" shape="664.917973,952.278139 688.776935,950.612783 709.638504,949.368140 727.577790,948.279076 752.668905,946.580236 776.894103,944.958500 795.236855,943.791449 819.151742,942.328551 835.619596,941.322886 852.170815,940.252733 860.607059,939.688594 866.695248,939.172840 874.074450,938.201996 880.653956,937.120694 885.086345,936.204445 890.257616,935.129931 893.879635,934.247617 898.607355,932.972023 903.507991,931.589774 907.954104,930.161956 910.818406,929.125790 918.902117,925.981390 925.044299,923.452721 930.374323,921.024709 935.518201,918.435899 939.868820,916.003897 944.680892,913.105703 947.951213,911.134439 952.219146,908.488770 957.452793,905.089937 965.303938,899.713479 965.512849,907.142443 965.131275,909.703120 964.047845,912.055774 961.922159,913.957558 958.902801,915.701824 948.334415,921.450610 939.134413,925.889439 933.139382,928.511073 926.795070,930.967536 919.053794,933.264133 911.863526,935.052427 906.295023,936.227565 900.571674,937.342910 894.356595,938.278141 887.804634,939.093055 881.302640,939.820282 872.443468,940.428699 863.833175,940.887989 849.740554,941.845907 666.181144,953.625212 664.917973,952.278139"/>
    <poly id="549021965" type="landuse" color="194,194,130" fill="1" layer="-3.00" shape="1139.110382,858.368231 1140.537587,861.456037 1125.842977,867.594483 1110.713738,873.454196 1089.496262,880.842210 1076.129010,884.924086 1066.524661,887.693539 1056.943470,890.107488 1057.043147,888.674459 1057.571889,887.475534 1058.555989,886.544808 1061.649143,885.347926 1075.279322,881.606953 1088.476647,877.520513 1109.704218,870.010340 1124.390666,864.428102 1139.110382,858.368231"/>
    <poly id="570009269" type="landuse" color="194,194,130" fill="1" layer="-3.00" shape="973.960304,973.121957 973.560504,974.079499 972.810229,974.916347 971.790213,975.412077 970.635508,975.603698 965.078020,975.354490 959.609431,975.341391 953.576010,975.591389 953.407592,972.993704 958.422319,972.682999 963.606917,972.632834 968.742976,972.870738 973.960304,973.121957"/>