<?xml version="1.0" encoding="UTF-8"?>

<!-- generated on 2025-04-25 20:04:49 by Eclipse SUMO netconvert Version 1.22.0
<netconvertConfiguration xmlns:xsi="http://www.w3.org/2001/XMLSchema-instance" xsi:noNamespaceSchemaLocation="http://sumo.dlr.de/xsd/netconvertConfiguration.xsd">

    <input>
        <osm-files value="map.osm"/>
    </input>

    <output>
        <output-file value="osm_map\osm.net.xml"/>
        <output.street-names value="true"/>
        <output.original-names value="true"/>
    </output>

    <projection>
        <proj.utm value="true"/>
    </projection>

    <processing>
        <geometry.remove value="true"/>
        <roundabouts.guess value="true"/>
    </processing>

    <tls_building>
        <tls.discard-simple value="true"/>
        <tls.guess value="true"/>
        <tls.join value="true"/>
    </tls_building>

    <ramp_guessing>
        <ramps.guess value="true"/>
    </ramp_guessing>

    <junctions>
        <junctions.join value="true"/>
    </junctions>

</netconvertConfiguration>
-->

<net version="1.20" junctionCornerDetail="5" limitTurnSpeed="5.50" xmlns:xsi="http://www.w3.org/2001/XMLSchema-instance" xsi:noNamespaceSchemaLocation="http://sumo.dlr.de/xsd/net_file.xsd">

    <location netOffset="-630759.81,-5810242.92" convBoundary="0.00,0.00,1518.79,1066.05" origBoundary="16.923553,52.426541,16.945711,52.436064" projParameter="+proj=utm +zone=33 +ellps=WGS84 +datum=WGS84 +units=m +no_defs"/>

    <type id="highway.cycleway" priority="1" numLanes="1" speed="5.56" allow="bicycle" oneway="0" width="2.00"/>
    <type id="highway.footway" priority="1" numLanes="1" speed="2.78" allow="pedestrian" oneway="1" width="2.00"/>
    <type id="highway.living_street" priority="2" numLanes="1" speed="2.78" disallow="tram rail_urban rail rail_electric rail_fast ship container cable_car subway aircraft wheelchair scooter drone" oneway="0"/>
    <type id="highway.path" priority="1" numLanes="1" speed="5.56" allow="pedestrian bicycle" oneway="0" width="2.00"/>
    <type id="highway.pedestrian" priority="1" numLanes="1" speed="2.78" allow="pedestrian" oneway="1" width="2.00"/>
    <type id="highway.service" priority="1" numLanes="1" speed="5.56" allow="pedestrian delivery bicycle" oneway="0"/>
    <type id="highway.steps" priority="1" numLanes="1" speed="1.39" allow="pedestrian" oneway="1" width="2.00"/>
    <type id="highway.tertiary" priority="10" numLanes="1" speed="22.22" disallow="tram rail_urban rail rail_electric rail_fast ship container cable_car subway aircraft wheelchair scooter drone" oneway="0"/>
    <type id="railway.tram" priority="17" numLanes="1" speed="13.89" allow="tram" oneway="1"/>

    <edge id=":10047285054_0" function="internal">
        <lane id=":10047285054_0_0" index="0" allow="bicycle" speed="5.56" length="0.19" width="2.00" shape="1050.34,890.58 1050.53,890.60"/>
    </edge>
    <edge id=":10047285054_1" function="internal">
        <lane id=":10047285054_1_0" index="0" allow="bicycle" speed="5.56" length="0.74" width="2.00" shape="1052.51,890.39 1052.16,889.75"/>
    </edge>
    <edge id=":10047285054_2" function="internal">
        <lane id=":10047285054_2_0" index="0" allow="pedestrian bicycle" speed="2.89" length="1.46" width="2.00" shape="1052.51,890.39 1052.09,891.19 1051.62,891.49"/>
    </edge>
    <edge id=":10047285054_3" function="internal">
        <lane id=":10047285054_3_0" index="0" allow="pedestrian bicycle" speed="2.89" length="1.46" width="2.00" shape="1051.62,891.49 1051.10,891.29 1050.53,890.60"/>
    </edge>
    <edge id=":10651449048_0" function="internal">
        <lane id=":10651449048_0_0" index="0" allow="pedestrian bicycle" speed="5.56" length="2.91" width="2.00" shape="1026.14,1008.55 1024.30,1006.30"/>
    </edge>
    <edge id=":10651449048_1" function="internal">
        <lane id=":10651449048_1_0" index="0" allow="pedestrian bicycle" speed="2.89" length="0.79" width="2.00" shape="1026.14,1008.55 1026.08,1007.76"/>
    </edge>
    <edge id=":10651449048_4" function="internal">
        <lane id=":10651449048_4_0" index="0" allow="pedestrian bicycle" speed="2.89" length="2.13" width="2.00" shape="1026.08,1007.76 1026.07,1007.65 1026.31,1007.14 1026.86,1007.03 1027.72,1007.31"/>
    </edge>
    <edge id=":10651449048_2" function="internal">
        <lane id=":10651449048_2_0" index="0" allow="pedestrian bicycle" speed="5.56" length="3.00" width="2.00" shape="1025.81,1005.00 1027.72,1007.31"/>
    </edge>
    <edge id=":10651449048_3" function="internal">
        <lane id=":10651449048_3_0" index="0" allow="pedestrian bicycle" speed="2.89" length="2.44" width="2.00" shape="1025.81,1005.00 1025.92,1005.89 1025.71,1006.41 1025.16,1006.54 1024.76,1006.43"/>
    </edge>
    <edge id=":10651449048_5" function="internal">
        <lane id=":10651449048_5_0" index="0" allow="pedestrian bicycle" speed="2.89" length="0.48" width="2.00" shape="1024.76,1006.43 1024.30,1006.30"/>
    </edge>
    <edge id=":10651449050_0" function="internal">
        <lane id=":10651449050_0_0" index="0" allow="pedestrian bicycle" speed="5.56" length="4.87" width="2.00" shape="1061.08,1060.39 1061.65,1061.70 1061.91,1062.69 1061.84,1063.68 1061.42,1065.04"/>
    </edge>
    <edge id=":10651449050_1" function="internal">
        <lane id=":10651449050_1_0" index="0" allow="pedestrian bicycle" speed="2.89" length="2.54" width="2.00" shape="1061.08,1060.39 1060.93,1061.28 1060.58,1061.71 1060.03,1061.69 1059.58,1061.42"/>
    </edge>
    <edge id=":10651449050_4" function="internal">
        <lane id=":10651449050_4_0" index="0" allow="pedestrian bicycle" speed="2.89" length="0.38" width="2.00" shape="1059.58,1061.42 1059.26,1061.22"/>
    </edge>
    <edge id=":10651449050_2" function="internal">
        <lane id=":10651449050_2_0" index="0" allow="pedestrian bicycle" speed="5.56" length="3.29" width="2.00" shape="1059.54,1064.35 1059.82,1063.44 1059.85,1062.77 1059.66,1062.10 1059.26,1061.22"/>
    </edge>
    <edge id=":10651449050_3" function="internal">
        <lane id=":10651449050_3_0" index="0" allow="pedestrian bicycle" speed="2.89" length="0.79" width="2.00" shape="1059.54,1064.35 1060.18,1063.88"/>
    </edge>
    <edge id=":10651449050_5" function="internal">
        <lane id=":10651449050_5_0" index="0" allow="pedestrian bicycle" speed="2.89" length="2.13" width="2.00" shape="1060.18,1063.88 1060.27,1063.82 1060.83,1063.76 1061.21,1064.16 1061.42,1065.04"/>
    </edge>
    <edge id=":10651449053_0" function="internal">
        <lane id=":10651449053_0_0" index="0" allow="pedestrian bicycle" speed="5.56" length="2.86" width="2.00" shape="1053.01,1048.53 1051.62,1046.03"/>
    </edge>
    <edge id=":10651449053_1" function="internal">
        <lane id=":10651449053_1_0" index="0" allow="pedestrian bicycle" speed="2.89" length="0.79" width="2.00" shape="1053.01,1048.53 1053.10,1047.74"/>
    </edge>
    <edge id=":10651449053_4" function="internal">
        <lane id=":10651449053_4_0" index="0" allow="pedestrian bicycle" speed="2.89" length="2.13" width="2.00" shape="1053.10,1047.74 1053.11,1047.63 1053.44,1047.18 1054.00,1047.17 1054.78,1047.61"/>
    </edge>
    <edge id=":10651449053_2" function="internal">
        <lane id=":10651449053_2_0" index="0" allow="pedestrian bicycle" speed="5.56" length="2.97" width="2.00" shape="1053.34,1045.01 1054.78,1047.61"/>
    </edge>
    <edge id=":10651449053_3" function="internal">
        <lane id=":10651449053_3_0" index="0" allow="pedestrian bicycle" speed="2.89" length="2.45" width="2.00" shape="1053.34,1045.01 1053.29,1045.91 1052.99,1046.38 1052.43,1046.42 1052.05,1046.23"/>
    </edge>
    <edge id=":10651449053_5" function="internal">
        <lane id=":10651449053_5_0" index="0" allow="pedestrian bicycle" speed="2.89" length="0.47" width="2.00" shape="1052.05,1046.23 1051.62,1046.03"/>
    </edge>
    <edge id=":10651449054_0" function="internal">
        <lane id=":10651449054_0_0" index="0" allow="pedestrian bicycle" speed="5.56" length="2.89" width="2.00" shape="1057.49,1057.35 1056.23,1054.75"/>
    </edge>
    <edge id=":10651449054_1" function="internal">
        <lane id=":10651449054_1_0" index="0" allow="pedestrian bicycle" speed="2.89" length="0.79" width="2.00" shape="1057.49,1057.35 1057.62,1056.57"/>
    </edge>
    <edge id=":10651449054_4" function="internal">
        <lane id=":10651449054_4_0" index="0" allow="pedestrian bicycle" speed="2.89" length="2.13" width="2.00" shape="1057.62,1056.57 1057.64,1056.46 1057.99,1056.03 1058.55,1056.05 1059.31,1056.52"/>
    </edge>
    <edge id=":10651449054_2" function="internal">
        <lane id=":10651449054_2_0" index="0" allow="pedestrian bicycle" speed="5.56" length="2.99" width="2.00" shape="1058.00,1053.83 1059.31,1056.52"/>
    </edge>
    <edge id=":10651449054_3" function="internal">
        <lane id=":10651449054_3_0" index="0" allow="pedestrian bicycle" speed="2.89" length="2.44" width="2.00" shape="1058.00,1053.83 1057.90,1054.73 1057.58,1055.18 1057.02,1055.19 1056.65,1054.98"/>
    </edge>
    <edge id=":10651449054_5" function="internal">
        <lane id=":10651449054_5_0" index="0" allow="pedestrian bicycle" speed="2.89" length="0.48" width="2.00" shape="1056.65,1054.98 1056.23,1054.75"/>
    </edge>
    <edge id=":224681282_0" function="internal">
        <lane id=":224681282_0_0" index="0" disallow="tram rail_urban rail rail_electric rail_fast ship container cable_car subway aircraft wheelchair scooter drone" speed="11.06" length="15.77" shape="971.86,918.74 976.09,915.60 979.11,912.58 980.90,909.69 981.48,906.92"/>
    </edge>
    <edge id=":224681282_1" function="internal">
        <lane id=":224681282_1_0" index="0" disallow="pedestrian tram rail_urban rail rail_electric rail_fast ship container cable_car subway aircraft wheelchair scooter drone" speed="13.89" length="19.82" shape="973.61,921.42 978.35,917.99 981.36,915.34 984.35,912.65 989.02,909.12"/>
        <lane id=":224681282_1_1" index="1" disallow="pedestrian tram rail_urban rail rail_electric rail_fast ship container cable_car subway aircraft wheelchair scooter drone" speed="13.89" length="19.82" shape="975.36,924.10 980.12,920.65 983.15,917.99 986.15,915.29 990.84,911.75"/>
        <lane id=":224681282_1_2" index="2" disallow="pedestrian tram rail_urban rail rail_electric rail_fast ship container cable_car subway aircraft wheelchair scooter drone" speed="13.89" length="19.82" shape="977.11,926.78 981.89,923.32 984.94,920.64 987.96,917.94 992.67,914.38"/>
    </edge>
    <edge id=":224681282_4" function="internal">
        <lane id=":224681282_4_0" index="0" disallow="tram rail_urban rail rail_electric rail_fast ship container cable_car subway aircraft wheelchair scooter drone" speed="13.89" length="22.21" shape="981.38,929.13 981.48,906.92"/>
        <lane id=":224681282_4_1" index="1" disallow="tram rail_urban rail rail_electric rail_fast ship container cable_car subway aircraft wheelchair scooter drone" speed="13.89" length="22.30" shape="984.58,929.19 984.68,906.88"/>
    </edge>
    <edge id=":224681282_6" function="internal">
        <lane id=":224681282_6_0" index="0" disallow="pedestrian tram rail_urban rail rail_electric rail_fast ship container cable_car subway aircraft wheelchair scooter drone" speed="12.58" length="18.35" shape="984.58,929.19 985.06,923.13 986.26,918.20 988.19,914.41 990.84,911.75"/>
        <lane id=":224681282_6_1" index="1" disallow="pedestrian tram rail_urban rail rail_electric rail_fast ship container cable_car subway aircraft wheelchair scooter drone" speed="12.05" length="18.35" shape="984.58,929.19 985.15,924.77 986.69,920.83 989.19,917.37 992.67,914.38"/>
    </edge>
    <edge id=":250136178_0" function="internal">
        <lane id=":250136178_0_0" index="0" disallow="tram rail_urban rail rail_electric rail_fast ship container cable_car subway aircraft wheelchair scooter drone" speed="11.39" length="14.95" shape="1067.71,948.99 1064.16,952.03 1061.63,955.04 1060.10,958.02 1059.58,960.96"/>
    </edge>
    <edge id=":250136178_1" function="internal">
        <lane id=":250136178_1_0" index="0" disallow="tram rail_urban rail rail_electric rail_fast ship container cable_car subway aircraft wheelchair scooter drone" speed="13.89" length="18.46" shape="1065.78,946.43 1061.54,949.87 1058.86,952.49 1056.28,955.22 1052.34,959.02"/>
        <lane id=":250136178_1_1" index="1" disallow="tram rail_urban rail rail_electric rail_fast ship container cable_car subway aircraft wheelchair scooter drone" speed="13.89" length="18.46" shape="1063.85,943.88 1059.60,947.32 1056.91,949.94 1054.33,952.68 1050.37,956.48"/>
    </edge>
    <edge id=":250136178_3" function="internal">
        <lane id=":250136178_3_0" index="0" disallow="tram rail_urban rail rail_electric rail_fast ship container cable_car subway aircraft wheelchair scooter drone" speed="13.89" length="19.16" shape="1059.73,941.80 1059.58,960.96"/>
        <lane id=":250136178_3_1" index="1" disallow="tram rail_urban rail rail_electric rail_fast ship container cable_car subway aircraft wheelchair scooter drone" speed="13.89" length="19.18" shape="1056.53,941.77 1056.38,960.95"/>
    </edge>
    <edge id=":250136178_5" function="internal">
        <lane id=":250136178_5_0" index="0" disallow="tram rail_urban rail rail_electric rail_fast ship container cable_car subway aircraft wheelchair scooter drone" speed="12.84" length="16.41" shape="1056.53,941.77 1056.11,946.14 1054.95,950.05 1053.03,953.50 1050.37,956.48"/>
    </edge>
    <edge id=":250136180_0" function="internal">
        <lane id=":250136180_0_0" index="0" disallow="tram rail_urban rail rail_electric rail_fast ship container cable_car subway aircraft wheelchair scooter drone" speed="13.89" length="25.98" shape="1011.88,981.81 1006.34,976.59 1001.86,973.71 996.70,972.17 989.14,970.98"/>
    </edge>
    <edge id=":250136180_1" function="internal">
        <lane id=":250136180_1_0" index="0" disallow="tram rail_urban rail rail_electric rail_fast ship container cable_car subway aircraft wheelchair scooter drone" speed="13.89" length="29.35" shape="1014.15,979.56 1007.37,973.22 1001.87,968.89 996.89,965.26 991.65,961.04"/>
        <lane id=":250136180_1_1" index="1" disallow="tram rail_urban rail rail_electric rail_fast ship container cable_car subway aircraft wheelchair scooter drone" speed="13.89" length="29.35" shape="1016.43,977.31 1009.55,970.89 1003.98,966.48 998.93,962.80 993.67,958.56"/>
    </edge>
    <edge id=":250136180_3" function="internal">
        <lane id=":250136180_3_0" index="0" disallow="tram rail_urban rail rail_electric rail_fast ship container cable_car subway aircraft wheelchair scooter drone" speed="13.89" length="29.29" shape="1018.25,973.75 1011.62,972.65 1005.62,971.15 998.78,969.46 989.59,967.81"/>
        <lane id=":250136180_3_1" index="1" disallow="tram rail_urban rail rail_electric rail_fast ship container cable_car subway aircraft wheelchair scooter drone" speed="13.89" length="29.34" shape="1018.76,970.59 1012.12,969.49 1006.12,967.98 999.26,966.30 990.05,964.64"/>
    </edge>
    <edge id=":250136180_5" function="internal">
        <lane id=":250136180_5_0" index="0" disallow="tram rail_urban rail rail_electric rail_fast ship container cable_car subway aircraft wheelchair scooter drone" speed="13.89" length="28.27" shape="1018.76,970.59 1011.70,969.17 1005.30,966.64 999.36,963.07 993.67,958.56"/>
    </edge>
    <edge id=":2572413281_0" function="internal">
        <lane id=":2572413281_0_0" index="0" allow="tram" speed="13.89" length="3.52" shape="985.36,878.04 986.92,874.89"/>
    </edge>
    <edge id=":2797461567_0" function="internal">
        <lane id=":2797461567_0_0" index="0" disallow="tram rail_urban rail rail_electric rail_fast ship container cable_car subway aircraft wheelchair scooter drone" speed="13.89" length="7.94" shape="1057.52,997.12 1057.92,999.41 1058.60,1000.89 1059.34,1002.36 1059.93,1004.63"/>
    </edge>
    <edge id=":2801927238_0" function="internal">
        <lane id=":2801927238_0_0" index="0" allow="pedestrian delivery bicycle" speed="3.65" length="4.67" shape="886.05,885.70 884.72,885.15 884.17,884.44 884.41,883.58 885.44,882.56"/>
    </edge>
    <edge id=":2801927274_0" function="internal">
        <lane id=":2801927274_0_0" index="0" allow="pedestrian delivery bicycle" speed="3.65" length="4.67" shape="955.68,868.79 957.01,869.34 957.56,870.04 957.32,870.91 956.30,871.92"/>
    </edge>
    <edge id=":2801927282_0" function="internal">
        <lane id=":2801927282_0_0" index="0" allow="pedestrian bicycle" speed="2.89" length="2.92" width="2.00" shape="1050.40,889.42 1050.82,888.62 1051.29,888.32 1051.82,888.52 1052.39,889.22"/>
    </edge>
    <edge id=":3024489249_0" function="internal">
        <lane id=":3024489249_0_0" index="0" disallow="tram rail_urban rail rail_electric rail_fast ship container cable_car subway aircraft wheelchair scooter drone" speed="2.78" length="4.67" shape="948.00,1008.13 948.92,1007.02 949.76,1006.70 950.51,1007.19 951.18,1008.46"/>
    </edge>
    <edge id=":3024489250_0" function="internal">
        <lane id=":3024489250_0_0" index="0" allow="pedestrian bicycle" speed="5.56" length="2.97" width="2.00" shape="1031.86,1015.85 1030.05,1013.50"/>
    </edge>
    <edge id=":3024489250_1" function="internal">
        <lane id=":3024489250_1_0" index="0" allow="pedestrian bicycle" speed="2.89" length="0.79" width="2.00" shape="1031.86,1015.85 1031.81,1015.06"/>
    </edge>
    <edge id=":3024489250_4" function="internal">
        <lane id=":3024489250_4_0" index="0" allow="pedestrian bicycle" speed="2.89" length="2.13" width="2.00" shape="1031.81,1015.06 1031.81,1014.95 1032.06,1014.45 1032.61,1014.35 1033.46,1014.65"/>
    </edge>
    <edge id=":3024489250_2" function="internal">
        <lane id=":3024489250_2_0" index="0" allow="pedestrian bicycle" speed="5.56" length="3.01" width="2.00" shape="1031.62,1012.26 1033.46,1014.65"/>
    </edge>
    <edge id=":3024489250_3" function="internal">
        <lane id=":3024489250_3_0" index="0" allow="pedestrian bicycle" speed="2.89" length="2.41" width="2.00" shape="1031.62,1012.26 1031.69,1013.16 1031.45,1013.67 1030.91,1013.78 1030.53,1013.66"/>
    </edge>
    <edge id=":3024489250_5" function="internal">
        <lane id=":3024489250_5_0" index="0" allow="pedestrian bicycle" speed="2.89" length="0.51" width="2.00" shape="1030.53,1013.66 1030.05,1013.50"/>
    </edge>
    <edge id=":3024489253_0" function="internal">
        <lane id=":3024489253_0_0" index="0" allow="pedestrian bicycle" speed="5.56" length="2.77" width="2.00" shape="1043.12,1031.67 1041.62,1029.34"/>
    </edge>
    <edge id=":3024489253_1" function="internal">
        <lane id=":3024489253_1_0" index="0" allow="pedestrian bicycle" speed="2.89" length="0.79" width="2.00" shape="1043.12,1031.67 1043.16,1030.88"/>
    </edge>
    <edge id=":3024489253_4" function="internal">
        <lane id=":3024489253_4_0" index="0" allow="pedestrian bicycle" speed="2.89" length="2.13" width="2.00" shape="1043.16,1030.88 1043.17,1030.77 1043.47,1030.30 1044.03,1030.26 1044.84,1030.65"/>
    </edge>
    <edge id=":3024489253_2" function="internal">
        <lane id=":3024489253_2_0" index="0" allow="pedestrian bicycle" speed="5.56" length="2.93" width="2.00" shape="1043.26,1028.19 1044.84,1030.65"/>
    </edge>
    <edge id=":3024489253_3" function="internal">
        <lane id=":3024489253_3_0" index="0" allow="pedestrian bicycle" speed="2.89" length="2.47" width="2.00" shape="1043.26,1028.19 1043.28,1029.09 1043.01,1029.59 1042.46,1029.67 1042.04,1029.50"/>
    </edge>
    <edge id=":3024489253_5" function="internal">
        <lane id=":3024489253_5_0" index="0" allow="pedestrian bicycle" speed="2.89" length="0.45" width="2.00" shape="1042.04,1029.50 1041.62,1029.34"/>
    </edge>
    <edge id=":3024489257_0" function="internal">
        <lane id=":3024489257_0_0" index="0" disallow="tram rail_urban rail rail_electric rail_fast ship container cable_car subway aircraft wheelchair scooter drone" speed="2.78" length="5.06" shape="948.30,1036.46 947.75,1041.49"/>
    </edge>
    <edge id=":3024489257_1" function="internal">
        <lane id=":3024489257_1_0" index="0" disallow="tram rail_urban rail rail_electric rail_fast ship container cable_car subway aircraft wheelchair scooter drone" speed="2.78" length="5.02" shape="944.57,1041.13 945.12,1036.14"/>
    </edge>
    <edge id=":3024489267_0" function="internal">
        <lane id=":3024489267_0_0" index="0" disallow="tram rail_urban rail rail_electric rail_fast ship container cable_car subway aircraft wheelchair scooter drone" speed="2.78" length="4.67" shape="947.02,1047.82 946.09,1048.92 945.25,1049.22 944.50,1048.73 943.84,1047.45"/>
    </edge>
    <edge id=":3024489269_0" function="internal">
        <lane id=":3024489269_0_0" index="0" allow="pedestrian bicycle" speed="2.89" length="2.92" width="2.00" shape="1061.36,1065.22 1060.63,1065.76 1060.07,1065.82 1059.69,1065.42 1059.48,1064.54"/>
    </edge>
    <edge id=":402494983_0" function="internal">
        <lane id=":402494983_0_0" index="0" disallow="tram rail_urban rail rail_electric rail_fast ship container cable_car subway aircraft wheelchair scooter drone" speed="13.89" length="7.98" shape="1124.48,906.95 1122.66,908.33 1121.68,909.59 1120.72,910.90 1118.99,912.41"/>
        <lane id=":402494983_0_1" index="1" disallow="tram rail_urban rail rail_electric rail_fast ship container cable_car subway aircraft wheelchair scooter drone" speed="13.89" length="7.98" shape="1122.84,904.20 1120.97,905.62 1119.94,906.90 1118.94,908.24 1117.15,909.78"/>
        <lane id=":402494983_0_2" index="2" disallow="tram rail_urban rail rail_electric rail_fast ship container cable_car subway aircraft wheelchair scooter drone" speed="13.89" length="7.98" shape="1122.84,904.20 1120.67,905.21 1119.02,905.59 1117.41,906.01 1115.32,907.16"/>
    </edge>
    <edge id=":402499582_0" function="internal">
        <lane id=":402499582_0_0" index="0" disallow="tram rail_urban rail rail_electric rail_fast ship container cable_car subway aircraft wheelchair scooter drone" speed="10.42" length="14.99" shape="1029.66,886.52 1032.65,890.06 1035.68,892.49 1038.76,893.81 1041.87,894.03"/>
    </edge>
    <edge id=":402499582_1" function="internal">
        <lane id=":402499582_1_0" index="0" disallow="tram rail_urban rail rail_electric rail_fast ship container cable_car subway aircraft wheelchair scooter drone" speed="13.89" length="19.40" shape="1027.07,888.40 1030.59,892.82 1033.39,895.50 1036.42,897.99 1040.62,901.82"/>
        <lane id=":402499582_1_1" index="1" disallow="tram rail_urban rail rail_electric rail_fast ship container cable_car subway aircraft wheelchair scooter drone" speed="13.89" length="19.40" shape="1024.48,890.28 1028.10,894.82 1030.96,897.60 1034.07,900.17 1038.38,904.10"/>
    </edge>
    <edge id=":402499582_3" function="internal">
        <lane id=":402499582_3_0" index="0" disallow="pedestrian tram rail_urban rail rail_electric rail_fast ship container cable_car subway aircraft wheelchair scooter drone" speed="13.89" length="19.34" shape="1022.51,895.05 1028.22,894.39 1032.17,894.36 1036.13,894.42 1041.87,894.03"/>
        <lane id=":402499582_3_1" index="1" disallow="pedestrian tram rail_urban rail rail_electric rail_fast ship container cable_car subway aircraft wheelchair scooter drone" speed="13.89" length="19.34" shape="1023.01,898.21 1028.68,897.56 1032.59,897.53 1036.52,897.59 1042.22,897.21"/>
    </edge>
    <edge id=":402499582_5" function="internal">
        <lane id=":402499582_5_0" index="0" disallow="pedestrian tram rail_urban rail rail_electric rail_fast ship container cable_car subway aircraft wheelchair scooter drone" speed="11.50" length="15.63" shape="1023.52,901.37 1028.34,900.92 1032.42,901.22 1035.77,902.28 1038.38,904.10"/>
    </edge>
    <edge id=":5509116387_0" function="internal">
        <lane id=":5509116387_0_0" index="0" allow="tram" speed="13.89" length="0.25" shape="961.85,895.84 962.05,895.70"/>
    </edge>
    <edge id=":6343464545_0" function="internal">
        <lane id=":6343464545_0_0" index="0" allow="pedestrian bicycle" speed="2.89" length="2.92" width="2.00" shape="956.68,998.62 955.93,999.11 955.37,999.15 955.01,998.72 954.84,997.83"/>
    </edge>
    <edge id=":6343464549_0" function="internal">
        <lane id=":6343464549_0_0" index="0" allow="pedestrian bicycle" speed="5.56" length="2.94" width="2.00" shape="1037.04,1022.81 1035.31,1020.43"/>
    </edge>
    <edge id=":6343464549_1" function="internal">
        <lane id=":6343464549_1_0" index="0" allow="pedestrian bicycle" speed="2.89" length="0.79" width="2.00" shape="1037.04,1022.81 1037.02,1022.02"/>
    </edge>
    <edge id=":6343464549_4" function="internal">
        <lane id=":6343464549_4_0" index="0" allow="pedestrian bicycle" speed="2.89" length="2.13" width="2.00" shape="1037.02,1022.02 1037.01,1021.91 1037.28,1021.42 1037.83,1021.33 1038.67,1021.66"/>
    </edge>
    <edge id=":6343464549_2" function="internal">
        <lane id=":6343464549_2_0" index="0" allow="pedestrian bicycle" speed="5.56" length="3.01" width="2.00" shape="1036.91,1019.23 1038.67,1021.66"/>
    </edge>
    <edge id=":6343464549_3" function="internal">
        <lane id=":6343464549_3_0" index="0" allow="pedestrian bicycle" speed="2.89" length="2.43" width="2.00" shape="1036.91,1019.23 1036.96,1020.13 1036.71,1020.63 1036.16,1020.73 1035.78,1020.60"/>
    </edge>
    <edge id=":6343464549_5" function="internal">
        <lane id=":6343464549_5_0" index="0" allow="pedestrian bicycle" speed="2.89" length="0.50" width="2.00" shape="1035.78,1020.60 1035.31,1020.43"/>
    </edge>
    <edge id=":7917437612_0" function="internal">
        <lane id=":7917437612_0_0" index="0" allow="bicycle" speed="2.89" length="2.92" width="2.00" shape="1129.02,910.73 1129.92,910.70 1130.41,910.95 1130.51,911.51 1130.19,912.35"/>
    </edge>
    <edge id=":7917437653_0" function="internal">
        <lane id=":7917437653_0_0" index="0" allow="bicycle" speed="5.56" length="6.53" width="2.00" shape="956.61,979.57 950.09,979.83"/>
    </edge>
    <edge id=":7917437653_1" function="internal">
        <lane id=":7917437653_1_0" index="0" allow="bicycle" speed="2.89" length="1.23" width="2.00" shape="956.61,979.57 955.86,979.08 955.71,978.79"/>
    </edge>
    <edge id=":7917437653_4" function="internal">
        <lane id=":7917437653_4_0" index="0" allow="bicycle" speed="2.89" length="1.69" width="2.00" shape="955.71,978.79 955.60,978.59 955.84,978.08 956.58,977.57"/>
    </edge>
    <edge id=":7917437653_2" function="internal">
        <lane id=":7917437653_2_0" index="0" allow="bicycle" speed="5.56" length="6.62" width="2.00" shape="949.97,977.84 956.58,977.57"/>
    </edge>
    <edge id=":7917437653_3" function="internal">
        <lane id=":7917437653_3_0" index="0" allow="bicycle" speed="2.89" length="1.31" width="2.00" shape="949.97,977.84 950.75,978.29 950.95,978.64"/>
    </edge>
    <edge id=":7917437653_5" function="internal">
        <lane id=":7917437653_5_0" index="0" allow="bicycle" speed="2.89" length="1.61" width="2.00" shape="950.95,978.64 951.03,978.77 950.81,979.29 950.09,979.83"/>
    </edge>
    <edge id=":7917437708_0" function="internal">
        <lane id=":7917437708_0_0" index="0" allow="bicycle" speed="5.56" length="20.68" width="2.00" shape="931.85,980.99 927.21,981.24 921.51,981.46 915.81,981.55 911.18,981.40"/>
    </edge>
    <edge id=":7917437708_1" function="internal">
        <lane id=":7917437708_1_0" index="0" allow="bicycle" speed="2.90" length="1.02" width="2.00" shape="931.85,980.99 931.13,980.42 931.09,980.32"/>
    </edge>
    <edge id=":7917437708_4" function="internal">
        <lane id=":7917437708_4_0" index="0" allow="bicycle" speed="2.90" length="1.93" width="2.00" shape="931.09,980.32 930.92,979.90 931.21,979.42 932.01,978.97"/>
    </edge>
    <edge id=":7917437708_2" function="internal">
        <lane id=":7917437708_2_0" index="0" allow="bicycle" speed="5.56" length="20.68" width="2.00" shape="911.34,979.40 915.97,979.55 921.67,979.46 927.37,979.23 932.01,978.97"/>
    </edge>
    <edge id=":7917437708_3" function="internal">
        <lane id=":7917437708_3_0" index="0" allow="bicycle" speed="2.89" length="1.19" width="2.00" shape="911.34,979.40 912.05,979.96 912.16,980.23"/>
    </edge>
    <edge id=":7917437708_5" function="internal">
        <lane id=":7917437708_5_0" index="0" allow="bicycle" speed="2.89" length="1.73" width="2.00" shape="912.16,980.23 912.26,980.48 911.97,980.96 911.18,981.40"/>
    </edge>
    <edge id=":7917437732_0" function="internal">
        <lane id=":7917437732_0_0" index="0" allow="bicycle" speed="2.89" length="2.92" width="2.00" shape="0.47,1035.92 -0.43,1035.83 -0.88,1035.51 -0.90,1034.95 -0.47,1034.16"/>
    </edge>
    <edge id=":cluster_10047285037_7917437615_0" function="internal">
        <lane id=":cluster_10047285037_7917437615_0_0" index="0" allow="bicycle" speed="5.30" length="6.50" width="2.00" shape="1077.33,945.15 1078.15,945.88 1079.38,945.93 1081.02,945.32 1083.06,944.02"/>
    </edge>
    <edge id=":cluster_10047285037_7917437615_1" function="internal">
        <lane id=":cluster_10047285037_7917437615_1_0" index="0" allow="bicycle" speed="5.56" length="7.44" width="2.00" shape="1077.33,945.15 1078.08,946.92 1078.28,948.68 1077.94,950.43 1077.05,952.18"/>
    </edge>
    <edge id=":cluster_10047285037_7917437615_2" function="internal">
        <lane id=":cluster_10047285037_7917437615_2_0" index="0" allow="bicycle" speed="2.89" length="2.92" width="2.00" shape="1077.33,945.15 1077.27,946.05 1076.97,946.52 1076.41,946.55 1075.60,946.15"/>
    </edge>
    <edge id=":cluster_10047285037_7917437615_3" function="internal">